<?xml version="1.0" encoding="UTF-8"?>

<!-- generated on 2024-09-10 18:59:54 by Eclipse SUMO netedit Version 1.20.0
<configuration xmlns:xsi="http://www.w3.org/2001/XMLSchema-instance" xsi:noNamespaceSchemaLocation="http://sumo.dlr.de/xsd/neteditConfiguration.xsd">

    <input>
        <sumocfg-file value="C:\Users\legion\ng達 4 new\sumo config.sumocfg"/>
        <additional-files value=""/>
        <route-files value="C:\Users\legion\code_nga_4\route_file_nga_4.rou.xml"/>
        <sumo-net-file value="C:\Users\legion\ng達 4 new\network file.net.xml"/>
    </input>

    <output>
        <tls-file value="C:\Users\legion\ng達 4 new\traffic light.tll.xml"/>
        <output-file value="C:\Users\legion\ng達 4 new\network file.net.xml"/>
    </output>

    <processing>
        <geometry.min-radius.fix.railways value="false"/>
        <geometry.max-grade.fix value="false"/>
        <offset.disable-normalization value="true"/>
        <lefthand value="0"/>
    </processing>

    <junctions>
        <no-turnarounds value="true"/>
        <junctions.corner-detail value="5"/>
        <junctions.limit-turn-speed value="5.50"/>
        <rectangular-lane-cut value="0"/>
    </junctions>

    <pedestrian>
        <walkingareas value="0"/>
    </pedestrian>

    <netedit>
        <ignore.routeelements value="false"/>
    </netedit>

</configuration>
-->

<net version="1.20" junctionCornerDetail="5" limitTurnSpeed="5.50" xmlns:xsi="http://www.w3.org/2001/XMLSchema-instance" xsi:noNamespaceSchemaLocation="http://sumo.dlr.de/xsd/net_file.xsd">

    <location netOffset="0.00,0.00" convBoundary="-100.00,-100.00,700.00,300.00" origBoundary="-10000000000.00,-10000000000.00,10000000000.00,10000000000.00" projParameter="!"/>

    <edge id=":J1_0" function="internal">
        <lane id=":J1_0_0" index="0" speed="6.51" length="9.03" shape="495.20,110.40 494.85,107.95 493.80,106.20 492.05,105.15 489.60,104.80"/>
    </edge>
    <edge id=":J1_1" function="internal">
        <lane id=":J1_1_0" index="0" speed="13.89" length="20.80" shape="495.20,110.40 495.20,89.60"/>
        <lane id=":J1_1_1" index="1" speed="13.89" length="20.80" shape="498.40,110.40 498.40,89.60"/>
    </edge>
    <edge id=":J1_3" function="internal">
        <lane id=":J1_3_0" index="0" speed="9.26" length="5.01" shape="498.40,110.40 499.11,105.44"/>
    </edge>
    <edge id=":J1_16" function="internal">
        <lane id=":J1_16_0" index="0" speed="9.26" length="14.34" shape="499.11,105.44 499.15,105.15 501.40,101.40 505.15,99.15 510.40,98.40"/>
    </edge>
    <edge id=":J1_4" function="internal">
        <lane id=":J1_4_0" index="0" speed="6.51" length="9.03" shape="510.40,104.80 507.95,105.15 506.20,106.20 505.15,107.95 504.80,110.40"/>
    </edge>
    <edge id=":J1_5" function="internal">
        <lane id=":J1_5_0" index="0" speed="13.89" length="20.80" shape="510.40,104.80 489.60,104.80"/>
        <lane id=":J1_5_1" index="1" speed="13.89" length="20.80" shape="510.40,101.60 489.60,101.60"/>
    </edge>
    <edge id=":J1_7" function="internal">
        <lane id=":J1_7_0" index="0" speed="9.26" length="5.01" shape="510.40,101.60 505.44,100.89"/>
    </edge>
    <edge id=":J1_17" function="internal">
        <lane id=":J1_17_0" index="0" speed="9.26" length="14.34" shape="505.44,100.89 505.15,100.85 501.40,98.60 499.15,94.85 498.40,89.60"/>
    </edge>
    <edge id=":J1_8" function="internal">
        <lane id=":J1_8_0" index="0" speed="6.51" length="9.03" shape="504.80,89.60 505.15,92.05 506.20,93.80 507.95,94.85 510.40,95.20"/>
    </edge>
    <edge id=":J1_9" function="internal">
        <lane id=":J1_9_0" index="0" speed="13.89" length="20.80" shape="504.80,89.60 504.80,110.40"/>
        <lane id=":J1_9_1" index="1" speed="13.89" length="20.80" shape="501.60,89.60 501.60,110.40"/>
    </edge>
    <edge id=":J1_11" function="internal">
        <lane id=":J1_11_0" index="0" speed="9.26" length="5.01" shape="501.60,89.60 500.89,94.56"/>
    </edge>
    <edge id=":J1_18" function="internal">
        <lane id=":J1_18_0" index="0" speed="9.26" length="14.34" shape="500.89,94.56 500.85,94.85 498.60,98.60 494.85,100.85 489.60,101.60"/>
    </edge>
    <edge id=":J1_12" function="internal">
        <lane id=":J1_12_0" index="0" speed="6.51" length="9.03" shape="489.60,95.20 492.05,94.85 493.80,93.80 494.85,92.05 495.20,89.60"/>
    </edge>
    <edge id=":J1_13" function="internal">
        <lane id=":J1_13_0" index="0" speed="13.89" length="20.80" shape="489.60,95.20 510.40,95.20"/>
        <lane id=":J1_13_1" index="1" speed="13.89" length="20.80" shape="489.60,98.40 510.40,98.40"/>
    </edge>
    <edge id=":J1_15" function="internal">
        <lane id=":J1_15_0" index="0" speed="9.26" length="5.01" shape="489.60,98.40 494.56,99.11"/>
    </edge>
    <edge id=":J1_19" function="internal">
        <lane id=":J1_19_0" index="0" speed="9.26" length="14.34" shape="494.56,99.11 494.85,99.15 498.60,101.40 500.85,105.15 501.60,110.40"/>
    </edge>
    <edge id=":J10_0" function="internal">
        <lane id=":J10_0_0" index="0" speed="13.89" length="0.10" shape="0.00,104.80 0.00,104.80"/>
        <lane id=":J10_0_1" index="1" speed="13.89" length="0.10" shape="0.00,101.60 0.00,101.60"/>
    </edge>
    <edge id=":J10_2" function="internal">
        <lane id=":J10_2_0" index="0" speed="13.89" length="0.10" shape="0.00,95.20 0.00,95.20"/>
        <lane id=":J10_2_1" index="1" speed="13.89" length="0.10" shape="0.00,98.40 0.00,98.40"/>
    </edge>
    <edge id=":J11_0" function="internal">
        <lane id=":J11_0_0" index="0" speed="6.51" length="9.03" shape="95.20,110.40 94.85,107.95 93.80,106.20 92.05,105.15 89.60,104.80"/>
    </edge>
    <edge id=":J11_1" function="internal">
        <lane id=":J11_1_0" index="0" speed="13.89" length="20.80" shape="95.20,110.40 95.20,89.60"/>
        <lane id=":J11_1_1" index="1" speed="13.89" length="20.80" shape="98.40,110.40 98.40,89.60"/>
    </edge>
    <edge id=":J11_3" function="internal">
        <lane id=":J11_3_0" index="0" speed="9.26" length="5.01" shape="98.40,110.40 99.11,105.44"/>
    </edge>
    <edge id=":J11_16" function="internal">
        <lane id=":J11_16_0" index="0" speed="9.26" length="14.34" shape="99.11,105.44 99.15,105.15 101.40,101.40 105.15,99.15 110.40,98.40"/>
    </edge>
    <edge id=":J11_4" function="internal">
        <lane id=":J11_4_0" index="0" speed="6.51" length="9.03" shape="110.40,104.80 107.95,105.15 106.20,106.20 105.15,107.95 104.80,110.40"/>
    </edge>
    <edge id=":J11_5" function="internal">
        <lane id=":J11_5_0" index="0" speed="13.89" length="20.80" shape="110.40,104.80 89.60,104.80"/>
        <lane id=":J11_5_1" index="1" speed="13.89" length="20.80" shape="110.40,101.60 89.60,101.60"/>
    </edge>
    <edge id=":J11_7" function="internal">
        <lane id=":J11_7_0" index="0" speed="9.26" length="5.01" shape="110.40,101.60 105.44,100.89"/>
    </edge>
    <edge id=":J11_17" function="internal">
        <lane id=":J11_17_0" index="0" speed="9.26" length="14.34" shape="105.44,100.89 105.15,100.85 101.40,98.60 99.15,94.85 98.40,89.60"/>
    </edge>
    <edge id=":J11_8" function="internal">
        <lane id=":J11_8_0" index="0" speed="6.51" length="9.03" shape="104.80,89.60 105.15,92.05 106.20,93.80 107.95,94.85 110.40,95.20"/>
    </edge>
    <edge id=":J11_9" function="internal">
        <lane id=":J11_9_0" index="0" speed="13.89" length="20.80" shape="104.80,89.60 104.80,110.40"/>
        <lane id=":J11_9_1" index="1" speed="13.89" length="20.80" shape="101.60,89.60 101.60,110.40"/>
    </edge>
    <edge id=":J11_11" function="internal">
        <lane id=":J11_11_0" index="0" speed="9.26" length="5.01" shape="101.60,89.60 100.89,94.56"/>
    </edge>
    <edge id=":J11_18" function="internal">
        <lane id=":J11_18_0" index="0" speed="9.26" length="14.34" shape="100.89,94.56 100.85,94.85 98.60,98.60 94.85,100.85 89.60,101.60"/>
    </edge>
    <edge id=":J11_12" function="internal">
        <lane id=":J11_12_0" index="0" speed="6.51" length="9.03" shape="89.60,95.20 92.05,94.85 93.80,93.80 94.85,92.05 95.20,89.60"/>
    </edge>
    <edge id=":J11_13" function="internal">
        <lane id=":J11_13_0" index="0" speed="13.89" length="20.80" shape="89.60,95.20 110.40,95.20"/>
        <lane id=":J11_13_1" index="1" speed="13.89" length="20.80" shape="89.60,98.40 110.40,98.40"/>
    </edge>
    <edge id=":J11_15" function="internal">
        <lane id=":J11_15_0" index="0" speed="9.26" length="5.01" shape="89.60,98.40 94.56,99.11"/>
    </edge>
    <edge id=":J11_19" function="internal">
        <lane id=":J11_19_0" index="0" speed="9.26" length="14.34" shape="94.56,99.11 94.85,99.15 98.60,101.40 100.85,105.15 101.60,110.40"/>
    </edge>
    <edge id=":J12_0" function="internal">
        <lane id=":J12_0_0" index="0" speed="13.89" length="0.10" shape="200.00,104.80 200.00,104.80"/>
        <lane id=":J12_0_1" index="1" speed="13.89" length="0.10" shape="200.00,101.60 200.00,101.60"/>
    </edge>
    <edge id=":J12_2" function="internal">
        <lane id=":J12_2_0" index="0" speed="13.89" length="0.10" shape="200.00,95.20 200.00,95.20"/>
        <lane id=":J12_2_1" index="1" speed="13.89" length="0.10" shape="200.00,98.40 200.00,98.40"/>
    </edge>
    <edge id=":J13_0" function="internal">
        <lane id=":J13_0_0" index="0" speed="13.89" length="0.10" shape="300.00,104.80 300.00,104.80"/>
        <lane id=":J13_0_1" index="1" speed="13.89" length="0.10" shape="300.00,101.60 300.00,101.60"/>
    </edge>
    <edge id=":J13_2" function="internal">
        <lane id=":J13_2_0" index="0" speed="13.89" length="0.10" shape="300.00,95.20 300.00,95.20"/>
        <lane id=":J13_2_1" index="1" speed="13.89" length="0.10" shape="300.00,98.40 300.00,98.40"/>
    </edge>
    <edge id=":J14_0" function="internal">
        <lane id=":J14_0_0" index="0" speed="13.89" length="0.10" shape="400.00,104.80 400.00,104.80"/>
        <lane id=":J14_0_1" index="1" speed="13.89" length="0.10" shape="400.00,101.60 400.00,101.60"/>
    </edge>
    <edge id=":J14_2" function="internal">
        <lane id=":J14_2_0" index="0" speed="13.89" length="0.10" shape="400.00,95.20 400.00,95.20"/>
        <lane id=":J14_2_1" index="1" speed="13.89" length="0.10" shape="400.00,98.40 400.00,98.40"/>
    </edge>
    <edge id=":J15_0" function="internal">
        <lane id=":J15_0_0" index="0" speed="13.89" length="0.10" shape="95.20,200.00 95.20,200.00"/>
        <lane id=":J15_0_1" index="1" speed="13.89" length="0.10" shape="98.40,200.00 98.40,200.00"/>
    </edge>
    <edge id=":J15_2" function="internal">
        <lane id=":J15_2_0" index="0" speed="13.89" length="0.10" shape="104.80,200.00 104.80,200.00"/>
        <lane id=":J15_2_1" index="1" speed="13.89" length="0.10" shape="101.60,200.00 101.60,200.00"/>
    </edge>
    <edge id=":J16_0" function="internal">
        <lane id=":J16_0_0" index="0" speed="13.89" length="0.10" shape="95.20,0.00 95.20,0.00"/>
        <lane id=":J16_0_1" index="1" speed="13.89" length="0.10" shape="98.40,0.00 98.40,0.00"/>
    </edge>
    <edge id=":J16_2" function="internal">
        <lane id=":J16_2_0" index="0" speed="13.89" length="0.10" shape="104.80,0.00 104.80,0.00"/>
        <lane id=":J16_2_1" index="1" speed="13.89" length="0.10" shape="101.60,0.00 101.60,0.00"/>
    </edge>
    <edge id=":J18_0" function="internal">
        <lane id=":J18_0_0" index="0" speed="13.89" length="0.10" shape="600.00,104.80 600.00,104.80"/>
        <lane id=":J18_0_1" index="1" speed="13.89" length="0.10" shape="600.00,101.60 600.00,101.60"/>
    </edge>
    <edge id=":J18_2" function="internal">
        <lane id=":J18_2_0" index="0" speed="13.89" length="0.10" shape="600.00,95.20 600.00,95.20"/>
        <lane id=":J18_2_1" index="1" speed="13.89" length="0.10" shape="600.00,98.40 600.00,98.40"/>
    </edge>
    <edge id=":J8_0" function="internal">
        <lane id=":J8_0_0" index="0" speed="13.89" length="0.10" shape="495.20,200.00 495.20,200.00"/>
        <lane id=":J8_0_1" index="1" speed="13.89" length="0.10" shape="498.40,200.00 498.40,200.00"/>
    </edge>
    <edge id=":J8_2" function="internal">
        <lane id=":J8_2_0" index="0" speed="13.89" length="0.10" shape="504.80,200.00 504.80,200.00"/>
        <lane id=":J8_2_1" index="1" speed="13.89" length="0.10" shape="501.60,200.00 501.60,200.00"/>
    </edge>
    <edge id=":J9_0" function="internal">
        <lane id=":J9_0_0" index="0" speed="13.89" length="0.10" shape="495.20,0.00 495.20,0.00"/>
        <lane id=":J9_0_1" index="1" speed="13.89" length="0.10" shape="498.40,0.00 498.40,0.00"/>
    </edge>
    <edge id=":J9_2" function="internal">
        <lane id=":J9_2_0" index="0" speed="13.89" length="0.10" shape="504.80,0.00 504.80,0.00"/>
        <lane id=":J9_2_1" index="1" speed="13.89" length="0.10" shape="501.60,0.00 501.60,0.00"/>
    </edge>

    <edge id="-E0" from="J10" to="J0" priority="-1">
        <lane id="-E0_0" index="0" speed="13.89" length="100.00" shape="0.00,104.80 -100.00,104.80"/>
        <lane id="-E0_1" index="1" speed="13.89" length="100.00" shape="0.00,101.60 -100.00,101.60"/>
    </edge>
    <edge id="-E1" from="J14" to="J1" priority="-1">
        <lane id="-E1_0" index="0" speed="13.89" length="89.60" shape="400.00,95.20 489.60,95.20"/>
        <lane id="-E1_1" index="1" speed="13.89" length="89.60" shape="400.00,98.40 489.60,98.40"/>
    </edge>
    <edge id="-E10" from="J9" to="J17" priority="-1">
        <lane id="-E10_0" index="0" speed="13.89" length="100.00" shape="495.20,0.00 495.20,-100.00"/>
        <lane id="-E10_1" index="1" speed="13.89" length="100.00" shape="498.40,0.00 498.40,-100.00"/>
    </edge>
    <edge id="-E11" from="J11" to="J10" priority="-1">
        <lane id="-E11_0" index="0" speed="13.89" length="89.60" shape="89.60,104.80 0.00,104.80"/>
        <lane id="-E11_1" index="1" speed="13.89" length="89.60" shape="89.60,101.60 0.00,101.60"/>
    </edge>
    <edge id="-E12" from="J12" to="J11" priority="-1">
        <lane id="-E12_0" index="0" speed="13.89" length="89.60" shape="200.00,104.80 110.40,104.80"/>
        <lane id="-E12_1" index="1" speed="13.89" length="89.60" shape="200.00,101.60 110.40,101.60"/>
    </edge>
    <edge id="-E13" from="J13" to="J12" priority="-1">
        <lane id="-E13_0" index="0" speed="13.89" length="100.00" shape="300.00,104.80 200.00,104.80"/>
        <lane id="-E13_1" index="1" speed="13.89" length="100.00" shape="300.00,101.60 200.00,101.60"/>
    </edge>
    <edge id="-E14" from="J14" to="J13" priority="-1">
        <lane id="-E14_0" index="0" speed="13.89" length="100.00" shape="400.00,104.80 300.00,104.80"/>
        <lane id="-E14_1" index="1" speed="13.89" length="100.00" shape="400.00,101.60 300.00,101.60"/>
    </edge>
    <edge id="-E15" from="J11" to="J15" priority="-1">
        <lane id="-E15_0" index="0" speed="13.89" length="89.60" shape="104.80,110.40 104.80,200.00"/>
        <lane id="-E15_1" index="1" speed="13.89" length="89.60" shape="101.60,110.40 101.60,200.00"/>
    </edge>
    <edge id="-E16" from="J16" to="J11" priority="-1">
        <lane id="-E16_0" index="0" speed="13.89" length="89.60" shape="104.80,0.00 104.80,89.60"/>
        <lane id="-E16_1" index="1" speed="13.89" length="89.60" shape="101.60,0.00 101.60,89.60"/>
    </edge>
    <edge id="-E17" from="J1" to="J18" priority="-1">
        <lane id="-E17_0" index="0" speed="13.89" length="89.60" shape="510.40,95.20 600.00,95.20"/>
        <lane id="-E17_1" index="1" speed="13.89" length="89.60" shape="510.40,98.40 600.00,98.40"/>
    </edge>
    <edge id="-E18" from="J18" to="J19" priority="-1">
        <lane id="-E18_0" index="0" speed="13.89" length="100.00" shape="600.00,95.20 700.00,95.20"/>
        <lane id="-E18_1" index="1" speed="13.89" length="100.00" shape="600.00,98.40 700.00,98.40"/>
    </edge>
    <edge id="-E3" from="J15" to="J3" priority="-1">
        <lane id="-E3_0" index="0" speed="13.89" length="100.00" shape="104.80,200.00 104.80,300.00"/>
        <lane id="-E3_1" index="1" speed="13.89" length="100.00" shape="101.60,200.00 101.60,300.00"/>
    </edge>
    <edge id="-E4" from="J16" to="J4" priority="-1">
        <lane id="-E4_0" index="0" speed="13.89" length="100.00" shape="95.20,0.00 95.20,-100.00"/>
        <lane id="-E4_1" index="1" speed="13.89" length="100.00" shape="98.40,0.00 98.40,-100.00"/>
    </edge>
    <edge id="-E7" from="J8" to="J7" priority="-1">
        <lane id="-E7_0" index="0" speed="13.89" length="100.00" shape="504.80,200.00 504.80,300.00"/>
        <lane id="-E7_1" index="1" speed="13.89" length="100.00" shape="501.60,200.00 501.60,300.00"/>
    </edge>
    <edge id="-E8" from="J1" to="J8" priority="-1">
        <lane id="-E8_0" index="0" speed="13.89" length="89.60" shape="504.80,110.40 504.80,200.00"/>
        <lane id="-E8_1" index="1" speed="13.89" length="89.60" shape="501.60,110.40 501.60,200.00"/>
    </edge>
    <edge id="-E9" from="J1" to="J9" priority="-1">
        <lane id="-E9_0" index="0" speed="13.89" length="89.60" shape="495.20,89.60 495.20,0.00"/>
        <lane id="-E9_1" index="1" speed="13.89" length="89.60" shape="498.40,89.60 498.40,0.00"/>
    </edge>
    <edge id="E0" from="J0" to="J10" priority="-1">
        <lane id="E0_0" index="0" speed="13.89" length="100.00" shape="-100.00,95.20 0.00,95.20"/>
        <lane id="E0_1" index="1" speed="13.89" length="100.00" shape="-100.00,98.40 0.00,98.40"/>
    </edge>
    <edge id="E1" from="J1" to="J14" priority="-1">
        <lane id="E1_0" index="0" speed="13.89" length="89.60" shape="489.60,104.80 400.00,104.80"/>
        <lane id="E1_1" index="1" speed="13.89" length="89.60" shape="489.60,101.60 400.00,101.60"/>
    </edge>
    <edge id="E10" from="J17" to="J9" priority="-1">
        <lane id="E10_0" index="0" speed="13.89" length="100.00" shape="504.80,-100.00 504.80,0.00"/>
        <lane id="E10_1" index="1" speed="13.89" length="100.00" shape="501.60,-100.00 501.60,0.00"/>
    </edge>
    <edge id="E11" from="J10" to="J11" priority="-1">
        <lane id="E11_0" index="0" speed="13.89" length="89.60" shape="0.00,95.20 89.60,95.20"/>
        <lane id="E11_1" index="1" speed="13.89" length="89.60" shape="0.00,98.40 89.60,98.40"/>
    </edge>
    <edge id="E12" from="J11" to="J12" priority="-1">
        <lane id="E12_0" index="0" speed="13.89" length="89.60" shape="110.40,95.20 200.00,95.20"/>
        <lane id="E12_1" index="1" speed="13.89" length="89.60" shape="110.40,98.40 200.00,98.40"/>
    </edge>
    <edge id="E13" from="J12" to="J13" priority="-1">
        <lane id="E13_0" index="0" speed="13.89" length="100.00" shape="200.00,95.20 300.00,95.20"/>
        <lane id="E13_1" index="1" speed="13.89" length="100.00" shape="200.00,98.40 300.00,98.40"/>
    </edge>
    <edge id="E14" from="J13" to="J14" priority="-1">
        <lane id="E14_0" index="0" speed="13.89" length="100.00" shape="300.00,95.20 400.00,95.20"/>
        <lane id="E14_1" index="1" speed="13.89" length="100.00" shape="300.00,98.40 400.00,98.40"/>
    </edge>
    <edge id="E15" from="J15" to="J11" priority="-1">
        <lane id="E15_0" index="0" speed="13.89" length="89.60" shape="95.20,200.00 95.20,110.40"/>
        <lane id="E15_1" index="1" speed="13.89" length="89.60" shape="98.40,200.00 98.40,110.40"/>
    </edge>
    <edge id="E16" from="J11" to="J16" priority="-1">
        <lane id="E16_0" index="0" speed="13.89" length="89.60" shape="95.20,89.60 95.20,0.00"/>
        <lane id="E16_1" index="1" speed="13.89" length="89.60" shape="98.40,89.60 98.40,0.00"/>
    </edge>
    <edge id="E17" from="J18" to="J1" priority="-1">
        <lane id="E17_0" index="0" speed="13.89" length="89.60" shape="600.00,104.80 510.40,104.80"/>
        <lane id="E17_1" index="1" speed="13.89" length="89.60" shape="600.00,101.60 510.40,101.60"/>
    </edge>
    <edge id="E18" from="J19" to="J18" priority="-1">
        <lane id="E18_0" index="0" speed="13.89" length="100.00" shape="700.00,104.80 600.00,104.80"/>
        <lane id="E18_1" index="1" speed="13.89" length="100.00" shape="700.00,101.60 600.00,101.60"/>
    </edge>
    <edge id="E3" from="J3" to="J15" priority="-1">
        <lane id="E3_0" index="0" speed="13.89" length="100.00" shape="95.20,300.00 95.20,200.00"/>
        <lane id="E3_1" index="1" speed="13.89" length="100.00" shape="98.40,300.00 98.40,200.00"/>
    </edge>
    <edge id="E4" from="J4" to="J16" priority="-1">
        <lane id="E4_0" index="0" speed="13.89" length="100.00" shape="104.80,-100.00 104.80,0.00"/>
        <lane id="E4_1" index="1" speed="13.89" length="100.00" shape="101.60,-100.00 101.60,0.00"/>
    </edge>
    <edge id="E7" from="J7" to="J8" priority="-1">
        <lane id="E7_0" index="0" speed="13.89" length="100.00" shape="495.20,300.00 495.20,200.00"/>
        <lane id="E7_1" index="1" speed="13.89" length="100.00" shape="498.40,300.00 498.40,200.00"/>
    </edge>
    <edge id="E8" from="J8" to="J1" priority="-1">
        <lane id="E8_0" index="0" speed="13.89" length="89.60" shape="495.20,200.00 495.20,110.40"/>
        <lane id="E8_1" index="1" speed="13.89" length="89.60" shape="498.40,200.00 498.40,110.40"/>
    </edge>
    <edge id="E9" from="J9" to="J1" priority="-1">
        <lane id="E9_0" index="0" speed="13.89" length="89.60" shape="504.80,0.00 504.80,89.60"/>
        <lane id="E9_1" index="1" speed="13.89" length="89.60" shape="501.60,0.00 501.60,89.60"/>
    </edge>

    <tlLogic id="J1" type="static" programID="0" offset="0">
        <phase duration="42" state="GGGgrrrrGGGgrrrr"/>
        <phase duration="3"  state="yyyyrrrryyyyrrrr"/>
        <phase duration="42" state="rrrrGGGgrrrrGGGg"/>
        <phase duration="3"  state="rrrryyyyrrrryyyy"/>
    </tlLogic>
    <tlLogic id="J11" type="static" programID="0" offset="0">
        <phase duration="42" state="GGGgrrrrGGGgrrrr"/>
        <phase duration="3"  state="yyyyrrrryyyyrrrr"/>
        <phase duration="42" state="rrrrGGGgrrrrGGGg"/>
        <phase duration="3"  state="rrrryyyyrrrryyyy"/>
    </tlLogic>

    <junction id="J0" type="dead_end" x="-100.00" y="100.00" incLanes="-E0_0 -E0_1" intLanes="" shape="-100.00,100.00 -100.00,106.40 -100.00,100.00"/>
    <junction id="J1" type="traffic_light" x="500.00" y="100.00" incLanes="E8_0 E8_1 E17_0 E17_1 E9_0 E9_1 -E1_0 -E1_1" intLanes=":J1_0_0 :J1_1_0 :J1_1_1 :J1_16_0 :J1_4_0 :J1_5_0 :J1_5_1 :J1_17_0 :J1_8_0 :J1_9_0 :J1_9_1 :J1_18_0 :J1_12_0 :J1_13_0 :J1_13_1 :J1_19_0" shape="493.60,110.40 506.40,110.40 506.84,108.18 507.40,107.40 508.18,106.84 509.18,106.51 510.40,106.40 510.40,93.60 508.18,93.16 507.40,92.60 506.84,91.82 506.51,90.82 506.40,89.60 493.60,89.60 493.16,91.82 492.60,92.60 491.82,93.16 490.82,93.49 489.60,93.60 489.60,106.40 491.82,106.84 492.60,107.40 493.16,108.18 493.49,109.18">
        <request index="0"  response="0000000000000000" foes="0000000001100000" cont="0"/>
        <request index="1"  response="1000000010000000" foes="1111100011100000" cont="0"/>
        <request index="2"  response="1000000010000000" foes="1111100011100000" cont="0"/>
        <request index="3"  response="1000011010000000" foes="1110011011100000" cont="1"/>
        <request index="4"  response="0000011000000000" foes="0000011000000000" cont="0"/>
        <request index="5"  response="0000111000001111" foes="1000111000001111" cont="0"/>
        <request index="6"  response="0000111000001111" foes="1000111000001111" cont="0"/>
        <request index="7"  response="0110111000001110" foes="0110111000001110" cont="1"/>
        <request index="8"  response="0000000000000000" foes="0110000000000000" cont="0"/>
        <request index="9"  response="1000000010000000" foes="1110000011111000" cont="0"/>
        <request index="10" response="1000000010000000" foes="1110000011111000" cont="0"/>
        <request index="11" response="1000000010000110" foes="1110000011100110" cont="1"/>
        <request index="12" response="0000000000000110" foes="0000000000000110" cont="0"/>
        <request index="13" response="0000111100001110" foes="0000111110001110" cont="0"/>
        <request index="14" response="0000111100001110" foes="0000111110001110" cont="0"/>
        <request index="15" response="0000111001101110" foes="0000111001101110" cont="1"/>
    </junction>
    <junction id="J10" type="priority" x="0.00" y="100.00" incLanes="-E11_0 -E11_1 E0_0 E0_1" intLanes=":J10_0_0 :J10_0_1 :J10_2_0 :J10_2_1" shape="0.00,106.40 0.00,93.60 0.00,106.40">
        <request index="0" response="0000" foes="0000" cont="0"/>
        <request index="1" response="0000" foes="0000" cont="0"/>
        <request index="2" response="0000" foes="0000" cont="0"/>
        <request index="3" response="0000" foes="0000" cont="0"/>
    </junction>
    <junction id="J11" type="traffic_light" x="100.00" y="100.00" incLanes="E15_0 E15_1 -E12_0 -E12_1 -E16_0 -E16_1 E11_0 E11_1" intLanes=":J11_0_0 :J11_1_0 :J11_1_1 :J11_16_0 :J11_4_0 :J11_5_0 :J11_5_1 :J11_17_0 :J11_8_0 :J11_9_0 :J11_9_1 :J11_18_0 :J11_12_0 :J11_13_0 :J11_13_1 :J11_19_0" shape="93.60,110.40 106.40,110.40 106.84,108.18 107.40,107.40 108.18,106.84 109.18,106.51 110.40,106.40 110.40,93.60 108.18,93.16 107.40,92.60 106.84,91.82 106.51,90.82 106.40,89.60 93.60,89.60 93.16,91.82 92.60,92.60 91.82,93.16 90.82,93.49 89.60,93.60 89.60,106.40 91.82,106.84 92.60,107.40 93.16,108.18 93.49,109.18">
        <request index="0"  response="0000000000000000" foes="0000000001100000" cont="0"/>
        <request index="1"  response="1000000010000000" foes="1111100011100000" cont="0"/>
        <request index="2"  response="1000000010000000" foes="1111100011100000" cont="0"/>
        <request index="3"  response="1000011010000000" foes="1110011011100000" cont="1"/>
        <request index="4"  response="0000011000000000" foes="0000011000000000" cont="0"/>
        <request index="5"  response="0000111000001111" foes="1000111000001111" cont="0"/>
        <request index="6"  response="0000111000001111" foes="1000111000001111" cont="0"/>
        <request index="7"  response="0110111000001110" foes="0110111000001110" cont="1"/>
        <request index="8"  response="0000000000000000" foes="0110000000000000" cont="0"/>
        <request index="9"  response="1000000010000000" foes="1110000011111000" cont="0"/>
        <request index="10" response="1000000010000000" foes="1110000011111000" cont="0"/>
        <request index="11" response="1000000010000110" foes="1110000011100110" cont="1"/>
        <request index="12" response="0000000000000110" foes="0000000000000110" cont="0"/>
        <request index="13" response="0000111100001110" foes="0000111110001110" cont="0"/>
        <request index="14" response="0000111100001110" foes="0000111110001110" cont="0"/>
        <request index="15" response="0000111001101110" foes="0000111001101110" cont="1"/>
    </junction>
    <junction id="J12" type="priority" x="200.00" y="100.00" incLanes="-E13_0 -E13_1 E12_0 E12_1" intLanes=":J12_0_0 :J12_0_1 :J12_2_0 :J12_2_1" shape="200.00,106.40 200.00,93.60 200.00,106.40">
        <request index="0" response="0000" foes="0000" cont="0"/>
        <request index="1" response="0000" foes="0000" cont="0"/>
        <request index="2" response="0000" foes="0000" cont="0"/>
        <request index="3" response="0000" foes="0000" cont="0"/>
    </junction>
    <junction id="J13" type="priority" x="300.00" y="100.00" incLanes="-E14_0 -E14_1 E13_0 E13_1" intLanes=":J13_0_0 :J13_0_1 :J13_2_0 :J13_2_1" shape="300.00,106.40 300.00,93.60 300.00,106.40">
        <request index="0" response="0000" foes="0000" cont="0"/>
        <request index="1" response="0000" foes="0000" cont="0"/>
        <request index="2" response="0000" foes="0000" cont="0"/>
        <request index="3" response="0000" foes="0000" cont="0"/>
    </junction>
    <junction id="J14" type="priority" x="400.00" y="100.00" incLanes="E1_0 E1_1 E14_0 E14_1" intLanes=":J14_0_0 :J14_0_1 :J14_2_0 :J14_2_1" shape="400.00,106.40 400.00,93.60 400.00,106.40">
        <request index="0" response="0000" foes="0000" cont="0"/>
        <request index="1" response="0000" foes="0000" cont="0"/>
        <request index="2" response="0000" foes="0000" cont="0"/>
        <request index="3" response="0000" foes="0000" cont="0"/>
    </junction>
    <junction id="J15" type="priority" x="100.00" y="200.00" incLanes="E3_0 E3_1 -E15_0 -E15_1" intLanes=":J15_0_0 :J15_0_1 :J15_2_0 :J15_2_1" shape="93.60,200.00 106.40,200.00 93.60,200.00">
        <request index="0" response="0000" foes="0000" cont="0"/>
        <request index="1" response="0000" foes="0000" cont="0"/>
        <request index="2" response="0000" foes="0000" cont="0"/>
        <request index="3" response="0000" foes="0000" cont="0"/>
    </junction>
    <junction id="J16" type="priority" x="100.00" y="0.00" incLanes="E16_0 E16_1 E4_0 E4_1" intLanes=":J16_0_0 :J16_0_1 :J16_2_0 :J16_2_1" shape="93.60,0.00 106.40,0.00 93.60,0.00">
        <request index="0" response="0000" foes="0000" cont="0"/>
        <request index="1" response="0000" foes="0000" cont="0"/>
        <request index="2" response="0000" foes="0000" cont="0"/>
        <request index="3" response="0000" foes="0000" cont="0"/>
    </junction>
    <junction id="J17" type="dead_end" x="500.00" y="-100.00" incLanes="-E10_0 -E10_1" intLanes="" shape="500.00,-100.00 493.60,-100.00 500.00,-100.00"/>
    <junction id="J18" type="priority" x="600.00" y="100.00" incLanes="E18_0 E18_1 -E17_0 -E17_1" intLanes=":J18_0_0 :J18_0_1 :J18_2_0 :J18_2_1" shape="600.00,106.40 600.00,93.60 600.00,106.40">
        <request index="0" response="0000" foes="0000" cont="0"/>
        <request index="1" response="0000" foes="0000" cont="0"/>
        <request index="2" response="0000" foes="0000" cont="0"/>
        <request index="3" response="0000" foes="0000" cont="0"/>
    </junction>
    <junction id="J19" type="dead_end" x="700.00" y="100.00" incLanes="-E18_0 -E18_1" intLanes="" shape="700.00,100.00 700.00,93.60 700.00,100.00"/>