<?xml version="1.0" encoding="UTF-8"?>

<!-- generated on 2024-08-23 15:22:21.466168 by osmWebWizard.py v1_20_0+0002-343658e7c64
<configuration>
    <net-file value="C:\Users\ADMIN\Sumo\2024-08-23-15-21-40\osm.net.xml.gz"/>
    <output-trip-file value="C:\Users\ADMIN\Sumo\2024-08-23-15-21-40\osm.motorcycle.trips.xml"/>
    <route-file value="C:\Users\ADMIN\Sumo\2024-08-23-15-21-40\osm.motorcycle.rou.xml"/>
    <prefix value="motorcycle"/>
    <trip-attributes value="departLane=&quot;best&quot;"/>
    <fringe-start-attributes value="departSpeed=&quot;max&quot;"/>
    <vehicle-class value="motorcycle"/>
    <fringe-factor value="8"/>
    <vclass value="motorcycle"/>
    <via-edge-types value="highway.motorway,highway.motorway_link,highway.trunk_link,highway.primary_link,highway.secondary_link,highway.tertiary_link"/>
    <max-distance value="1200.0"/>
    <remove-loops value="True"/>
    <validate value="True"/>
    <insertion-density value="150.0"/>
</configuration>
-->

<!-- generated on 2024-08-23 15:22:18 by Eclipse SUMO duarouter Version 1.20.0
<configuration xmlns:xsi="http://www.w3.org/2001/XMLSchema-instance" xsi:noNamespaceSchemaLocation="http://sumo.dlr.de/xsd/duarouterConfiguration.xsd">

    <input>
        <net-file value="C:\Users\ADMIN\Sumo\2024-08-23-15-21-40\osm.net.xml.gz"/>
        <route-files value="C:\Users\ADMIN\Sumo\2024-08-23-15-21-40\osm.motorcycle.trips.xml"/>
    </input>

    <output>
        <output-file value="C:\Users\ADMIN\Sumo\2024-08-23-15-21-40\osm.motorcycle.trips.xml.tmp"/>
        <alternatives-output value="NUL"/>
        <write-trips value="true"/>
    </output>

    <processing>
        <remove-loops value="true"/>
    </processing>

    <time>
        <begin value="0.0"/>
        <end value="3600.0"/>
    </time>

    <report>
        <no-warnings value="true"/>
        <ignore-errors value="true"/>
        <no-step-log value="true"/>
    </report>

</configuration>
-->

<routes xmlns:xsi="http://www.w3.org/2001/XMLSchema-instance" xsi:noNamespaceSchemaLocation="http://sumo.dlr.de/xsd/routes_file.xsd">
    <vType id="motorcycle_motorcycle" vClass="motorcycle"/>
    <trip id="motorcycle0" type="motorcycle_motorcycle" depart="0.00" departLane="best" departSpeed="max" from="-702933227" to="-598767870"/>
    <trip id="motorcycle1" type="motorcycle_motorcycle" depart="0.40" departLane="best" from="598686809#1" to="598767865#1"/>
    <trip id="motorcycle2" type="motorcycle_motorcycle" depart="0.79" departLane="best" departSpeed="max" from="-953297055#1" to="-1226367640#2"/>
    <trip id="motorcycle3" type="motorcycle_motorcycle" depart="1.19" departLane="best" departSpeed="max" from="-598756379" to="220307072#2"/>
    <trip id="motorcycle5" type="motorcycle_motorcycle" depart="1.98" departLane="best" departSpeed="max" from="-598756379" to="399449409#10"/>
    <trip id="motorcycle6" type="motorcycle_motorcycle" depart="2.37" departLane="best" from="693286036#0" to="-1033758959"/>
    <trip id="motorcycle7" type="motorcycle_motorcycle" depart="2.77" departLane="best" departSpeed="max" from="684504394" to="598767891#1"/>
    <trip id="motorcycle8" type="motorcycle_motorcycle" depart="3.16" departLane="best" departSpeed="max" from="-763602935" to="-477390127#1"/>
    <trip id="motorcycle9" type="motorcycle_motorcycle" depart="3.56" departLane="best" from="944894014#3" to="-889984938"/>
    <trip id="motorcycle10" type="motorcycle_motorcycle" depart="3.95" departLane="best" departSpeed="max" from="-28924715#3" to="-374515769#0"/>
    <trip id="motorcycle11" type="motorcycle_motorcycle" depart="4.35" departLane="best" from="-708521402#3" to="399835468#4"/>
    <trip id="motorcycle12" type="motorcycle_motorcycle" depart="4.74" departLane="best" departSpeed="max" from="684504394" to="-684283625#1"/>
    <trip id="motorcycle13" type="motorcycle_motorcycle" depart="5.14" departLane="best" from="-889984991" to="374515771#3"/>
    <trip id="motorcycle16" type="motorcycle_motorcycle" depart="6.32" departLane="best" departSpeed="max" from="-598767865#1" to="693286036#5"/>
    <trip id="motorcycle18" type="motorcycle_motorcycle" depart="7.11" departLane="best" from="-889984963" to="-598685156"/>
    <trip id="motorcycle19" type="motorcycle_motorcycle" depart="7.51" departLane="best" from="-684524088#0" to="944894013#3"/>
    <trip id="motorcycle20" type="motorcycle_motorcycle" depart="7.90" departLane="best" from="472431975#1" to="472431975#3"/>
    <trip id="motorcycle21" type="motorcycle_motorcycle" depart="8.30" departLane="best" from="-50536193#4" to="-684283625#1"/>
    <trip id="motorcycle26" type="motorcycle_motorcycle" depart="10.27" departLane="best" from="598686806#0" to="945322259#5"/>
    <trip id="motorcycle27" type="motorcycle_motorcycle" depart="10.67" departLane="best" departSpeed="max" from="472432750" to="1075137416"/>
    <trip id="motorcycle29" type="motorcycle_motorcycle" depart="11.46" departLane="best" from="37370975#5" to="888441063"/>
    <trip id="motorcycle30" type="motorcycle_motorcycle" depart="11.86" departLane="best" from="-946030627#1" to="-598686807#1"/>
    <trip id="motorcycle31" type="motorcycle_motorcycle" depart="12.25" departLane="best" from="962177671#1" to="220360797#3"/>
    <trip id="motorcycle32" type="motorcycle_motorcycle" depart="12.65" departLane="best" from="-374515769#1" to="-593638911#1"/>
    <trip id="motorcycle33" type="motorcycle_motorcycle" depart="13.04" departLane="best" departSpeed="max" from="684504391" to="1119786561#0"/>
    <trip id="motorcycle34" type="motorcycle_motorcycle" depart="13.44" departLane="best" from="946030639#0" to="763602936"/>
    <trip id="motorcycle35" type="motorcycle_motorcycle" depart="13.83" departLane="best" from="1042529211" to="-675212141#2"/>
    <trip id="motorcycle37" type="motorcycle_motorcycle" depart="14.62" departLane="best" from="684343746" to="1119786561#1"/>
    <trip id="motorcycle39" type="motorcycle_motorcycle" depart="15.41" departLane="best" departSpeed="max" from="1077390705#0" to="-946030639#0"/>
    <trip id="motorcycle40" type="motorcycle_motorcycle" depart="15.81" departLane="best" from="711379743#2" to="-684283612#0"/>
    <trip id="motorcycle41" type="motorcycle_motorcycle" depart="16.20" departLane="best" from="-708521402#3" to="-597555262#0"/>
    <trip id="motorcycle42" type="motorcycle_motorcycle" depart="16.60" departLane="best" from="601529284#0" to="37370971#1"/>
    <trip id="motorcycle43" type="motorcycle_motorcycle" depart="16.99" departLane="best" departSpeed="max" from="683882970#0" to="36730546#0"/>
    <trip id="motorcycle44" type="motorcycle_motorcycle" depart="17.39" departLane="best" from="-1023619581#1" to="-838425492#1"/>
    <trip id="motorcycle45" type="motorcycle_motorcycle" depart="17.78" departLane="best" from="-1112836175" to="889985038"/>
    <trip id="motorcycle46" type="motorcycle_motorcycle" depart="18.18" departLane="best" from="-763602933#0" to="-763602932#1"/>
    <trip id="motorcycle47" type="motorcycle_motorcycle" depart="18.57" departLane="best" from="708920953#1" to="-136258948"/>
    <trip id="motorcycle48" type="motorcycle_motorcycle" depart="18.97" departLane="best" from="-763602932#1" to="946030627#1"/>
    <trip id="motorcycle50" type="motorcycle_motorcycle" depart="19.76" departLane="best" from="613324910#0" to="-397993967#0"/>
    <trip id="motorcycle51" type="motorcycle_motorcycle" depart="20.15" departLane="best" from="1119786561#1" to="374515769#2"/>
    <trip id="motorcycle53" type="motorcycle_motorcycle" depart="20.94" departLane="best" departSpeed="max" from="-953297055#1" to="598686800#0"/>
    <trip id="motorcycle54" type="motorcycle_motorcycle" depart="21.34" departLane="best" from="961713523#1" to="598675460"/>
    <trip id="motorcycle55" type="motorcycle_motorcycle" depart="21.73" departLane="best" from="1033758958" to="28924711#1"/>
    <trip id="motorcycle57" type="motorcycle_motorcycle" depart="22.53" departLane="best" departSpeed="max" from="-763602934" to="399449409#1"/>
    <trip id="motorcycle58" type="motorcycle_motorcycle" depart="22.92" departLane="best" departSpeed="max" from="-598767871" to="-598686809#1"/>
    <trip id="motorcycle59" type="motorcycle_motorcycle" depart="23.32" departLane="best" from="708920949" to="-28924706#3"/>
    <trip id="motorcycle61" type="motorcycle_motorcycle" depart="24.11" departLane="best" from="-598686809#0" to="-397993967#3"/>
    <trip id="motorcycle62" type="motorcycle_motorcycle" depart="24.50" departLane="best" from="-1112836175" to="-705244864#2"/>
    <trip id="motorcycle63" type="motorcycle_motorcycle" depart="24.90" departLane="best" from="-684524088#0" to="597619416"/>
    <trip id="motorcycle64" type="motorcycle_motorcycle" depart="25.29" departLane="best" departSpeed="max" from="-953330595" to="1262814304#13"/>
    <trip id="motorcycle65" type="motorcycle_motorcycle" depart="25.69" departLane="best" from="-598686800#2" to="-598767863"/>
    <trip id="motorcycle67" type="motorcycle_motorcycle" depart="26.48" departLane="best" from="-946030639#1" to="-889984938"/>
    <trip id="motorcycle68" type="motorcycle_motorcycle" depart="26.87" departLane="best" departSpeed="max" from="708920951#0" to="-675212141#2"/>
    <trip id="motorcycle69" type="motorcycle_motorcycle" depart="27.27" departLane="best" departSpeed="max" from="-953297055#1" to="-684504394"/>
    <trip id="motorcycle70" type="motorcycle_motorcycle" depart="27.66" departLane="best" departSpeed="max" from="1033758959" to="763602936"/>
    <trip id="motorcycle71" type="motorcycle_motorcycle" depart="28.06" departLane="best" from="965574225" to="763602932#3"/>
    <trip id="motorcycle72" type="motorcycle_motorcycle" depart="28.45" departLane="best" from="946030629#3" to="889985038"/>
    <trip id="motorcycle73" type="motorcycle_motorcycle" depart="28.85" departLane="best" from="708533143#11" to="50536193#5"/>
    <trip id="motorcycle74" type="motorcycle_motorcycle" depart="29.24" departLane="best" from="1185723931#0" to="598686800#3"/>
    <trip id="motorcycle75" type="motorcycle_motorcycle" depart="29.64" departLane="best" from="-946030627#3" to="-136258948"/>
    <trip id="motorcycle76" type="motorcycle_motorcycle" depart="30.03" departLane="best" departSpeed="max" from="-889984993" to="953330595"/>
    <trip id="motorcycle78" type="motorcycle_motorcycle" depart="30.82" departLane="best" departSpeed="max" from="1077390705#0" to="1119786561#1"/>
    <trip id="motorcycle79" type="motorcycle_motorcycle" depart="31.22" departLane="best" from="944894014#3" to="961713523#1"/>
    <trip id="motorcycle82" type="motorcycle_motorcycle" depart="32.40" departLane="best" from="946030629#2" to="397992225#4"/>
    <trip id="motorcycle83" type="motorcycle_motorcycle" depart="32.80" departLane="best" from="220307069" to="704595018#0"/>
    <trip id="motorcycle85" type="motorcycle_motorcycle" depart="33.59" departLane="best" from="-1262814304#10" to="763602935"/>
    <trip id="motorcycle86" type="motorcycle_motorcycle" depart="33.99" departLane="best" from="-28924706#0" to="-597555262#0"/>
    <trip id="motorcycle87" type="motorcycle_motorcycle" depart="34.38" departLane="best" departSpeed="max" from="374515769#0" to="598767865#0"/>
    <trip id="motorcycle88" type="motorcycle_motorcycle" depart="34.78" departLane="best" departSpeed="max" from="-598767871" to="397992225#4"/>
    <trip id="motorcycle89" type="motorcycle_motorcycle" depart="35.17" departLane="best" departSpeed="max" from="838419179" to="-601529284#1"/>
    <trip id="motorcycle90" type="motorcycle_motorcycle" depart="35.57" departLane="best" departSpeed="max" from="374515769#0" to="50536193#4"/>
    <trip id="motorcycle91" type="motorcycle_motorcycle" depart="35.96" departLane="best" departSpeed="max" from="-953297055#1" to="-397993693"/>
    <trip id="motorcycle94" type="motorcycle_motorcycle" depart="37.15" departLane="best" from="-598767882#4" to="1075137416"/>
    <trip id="motorcycle95" type="motorcycle_motorcycle" depart="37.54" departLane="best" from="-50536193#0" to="-708533143#11"/>
    <trip id="motorcycle96" type="motorcycle_motorcycle" depart="37.94" departLane="best" departSpeed="max" from="-763602931" to="704606544#0"/>
    <trip id="motorcycle98" type="motorcycle_motorcycle" depart="38.73" departLane="best" from="-764127635" to="838419183"/>
    <trip id="motorcycle100" type="motorcycle_motorcycle" depart="39.52" departLane="best" departSpeed="max" from="472432750" to="-1033758959"/>
    <trip id="motorcycle101" type="motorcycle_motorcycle" depart="39.91" departLane="best" from="704595018#0" to="-708533143#10"/>
    <trip id="motorcycle102" type="motorcycle_motorcycle" depart="40.31" departLane="best" from="-473304000" to="944894014#2"/>
    <trip id="motorcycle103" type="motorcycle_motorcycle" depart="40.70" departLane="best" from="374515768#0" to="-374515771#4"/>
    <trip id="motorcycle104" type="motorcycle_motorcycle" depart="41.10" departLane="best" from="693286036#5" to="465069893"/>
    <trip id="motorcycle105" type="motorcycle_motorcycle" depart="41.49" departLane="best" departSpeed="max" from="598685154#0" to="-598685154#0"/>
    <trip id="motorcycle106" type="motorcycle_motorcycle" depart="41.89" departLane="best" from="1204908492" to="889984929#2"/>
    <trip id="motorcycle107" type="motorcycle_motorcycle" depart="42.28" departLane="best" from="706507802" to="-374515769#0"/>
    <trip id="motorcycle109" type="motorcycle_motorcycle" depart="43.07" departLane="best" departSpeed="max" from="598767879" to="-374515771#2"/>
    <trip id="motorcycle110" type="motorcycle_motorcycle" depart="43.47" departLane="best" departSpeed="max" from="-953330595" to="-1033758959"/>
    <trip id="motorcycle111" type="motorcycle_motorcycle" depart="43.86" departLane="best" departSpeed="max" from="25953552#2" to="838425491#0"/>
    <trip id="motorcycle112" type="motorcycle_motorcycle" depart="44.26" departLane="best" from="-705238975#3" to="397992225#9"/>
    <trip id="motorcycle114" type="motorcycle_motorcycle" depart="45.05" departLane="best" departSpeed="max" from="-709289372#1" to="888441063"/>
    <trip id="motorcycle115" type="motorcycle_motorcycle" depart="45.45" departLane="best" departSpeed="max" from="684504393" to="763602936"/>
    <trip id="motorcycle116" type="motorcycle_motorcycle" depart="45.84" departLane="best" from="-598788857#1" to="374515771#6"/>
    <trip id="motorcycle117" type="motorcycle_motorcycle" depart="46.24" departLane="best" departSpeed="max" from="683882970#0" to="838425491#2"/>
    <trip id="motorcycle120" type="motorcycle_motorcycle" depart="47.42" departLane="best" from="693286036#2" to="838425490#1"/>
    <trip id="motorcycle122" type="motorcycle_motorcycle" depart="48.21" departLane="best" departSpeed="max" from="-763602933#1" to="896411624"/>
    <trip id="motorcycle123" type="motorcycle_motorcycle" depart="48.61" departLane="best" departSpeed="max" from="684504394" to="764842478"/>
    <trip id="motorcycle124" type="motorcycle_motorcycle" depart="49.00" departLane="best" from="-693286036#2" to="-684343746"/>
    <trip id="motorcycle125" type="motorcycle_motorcycle" depart="49.40" departLane="best" departSpeed="max" from="684283612#0" to="-37731777#5"/>
    <trip id="motorcycle126" type="motorcycle_motorcycle" depart="49.79" departLane="best" from="709260530#1" to="763602936"/>
    <trip id="motorcycle127" type="motorcycle_motorcycle" depart="50.19" departLane="best" from="-598767865#0" to="709289372#1"/>
    <trip id="motorcycle128" type="motorcycle_motorcycle" depart="50.58" departLane="best" from="1077390706#0" to="-708533143#9"/>
    <trip id="motorcycle131" type="motorcycle_motorcycle" depart="51.77" departLane="best" departSpeed="max" from="-763602933#1" to="764842478"/>
    <trip id="motorcycle132" type="motorcycle_motorcycle" depart="52.16" departLane="best" from="946030629#0" to="-684504394"/>
    <trip id="motorcycle133" type="motorcycle_motorcycle" depart="52.56" departLane="best" from="952211062" to="369969171#6"/>
    <trip id="motorcycle134" type="motorcycle_motorcycle" depart="52.95" departLane="best" from="945322260#3" to="-684283625#0"/>
    <trip id="motorcycle137" type="motorcycle_motorcycle" depart="54.14" departLane="best" departSpeed="max" from="-889985038" to="397992225#10"/>
    <trip id="motorcycle138" type="motorcycle_motorcycle" depart="54.53" departLane="best" from="-1023619581#3" to="889985038"/>
    <trip id="motorcycle139" type="motorcycle_motorcycle" depart="54.93" departLane="best" from="163843396#1" to="-675212141#1"/>
    <trip id="motorcycle141" type="motorcycle_motorcycle" depart="55.72" departLane="best" from="-889984929#0" to="-28924706#1"/>
    <trip id="motorcycle142" type="motorcycle_motorcycle" depart="56.12" departLane="best" departSpeed="max" from="477390127#0" to="889984929#2"/>
    <trip id="motorcycle143" type="motorcycle_motorcycle" depart="56.51" departLane="best" departSpeed="max" from="-763602931" to="763602934"/>
    <trip id="motorcycle144" type="motorcycle_motorcycle" depart="56.91" departLane="best" from="946030639#0" to="-705244864#2"/>
    <trip id="motorcycle146" type="motorcycle_motorcycle" depart="57.70" departLane="best" from="889984977" to="598767865#1"/>
    <trip id="motorcycle147" type="motorcycle_motorcycle" depart="58.09" departLane="best" from="838425491#4" to="-50536193#12"/>
    <trip id="motorcycle148" type="motorcycle_motorcycle" depart="58.49" departLane="best" from="-708533143#3" to="374515768#1"/>
    <trip id="motorcycle149" type="motorcycle_motorcycle" depart="58.88" departLane="best" from="-1023619581#1" to="693286036#1"/>
    <trip id="motorcycle150" type="motorcycle_motorcycle" depart="59.28" departLane="best" departSpeed="max" from="1033758959" to="598686800#3"/>
    <trip id="motorcycle151" type="motorcycle_motorcycle" depart="59.67" departLane="best" from="1112836175" to="888441063"/>
    <trip id="motorcycle152" type="motorcycle_motorcycle" depart="60.07" departLane="best" from="-28924706#6" to="-28924706#5"/>
    <trip id="motorcycle153" type="motorcycle_motorcycle" depart="60.46" departLane="best" from="704595019#1" to="704595023#1"/>
    <trip id="motorcycle155" type="motorcycle_motorcycle" depart="61.25" departLane="best" departSpeed="max" from="-598675460" to="1112836173"/>
    <trip id="motorcycle156" type="motorcycle_motorcycle" depart="61.65" departLane="best" from="-598767887#2" to="-1262814304#9"/>
    <trip id="motorcycle157" type="motorcycle_motorcycle" depart="62.04" departLane="best" from="708533143#2" to="-28924706#5"/>
    <trip id="motorcycle158" type="motorcycle_motorcycle" depart="62.44" departLane="best" departSpeed="max" from="-953277980" to="-593638911#4"/>
    <trip id="motorcycle159" type="motorcycle_motorcycle" depart="62.83" departLane="best" from="-597619423#0" to="598767887#3"/>
    <trip id="motorcycle160" type="motorcycle_motorcycle" depart="63.23" departLane="best" departSpeed="max" from="-472838714#0" to="-1033758959"/>
    <trip id="motorcycle161" type="motorcycle_motorcycle" depart="63.62" departLane="best" from="598767884#4" to="705219053"/>
    <trip id="motorcycle162" type="motorcycle_motorcycle" depart="64.02" departLane="best" from="-369969171#8" to="1119786562#1"/>
    <trip id="motorcycle164" type="motorcycle_motorcycle" depart="64.81" departLane="best" departSpeed="max" from="1290401834#0" to="1290401834#2"/>
    <trip id="motorcycle165" type="motorcycle_motorcycle" depart="65.20" departLane="best" from="-598788857#1" to="763602934"/>
    <trip id="motorcycle166" type="motorcycle_motorcycle" depart="65.60" departLane="best" departSpeed="max" from="1077390705#0" to="708533143#8"/>
    <trip id="motorcycle167" type="motorcycle_motorcycle" depart="65.99" departLane="best" from="374515769#1" to="946030629#0"/>
    <trip id="motorcycle168" type="motorcycle_motorcycle" depart="66.39" departLane="best" departSpeed="max" from="838419179" to="-477390127#4"/>
    <trip id="motorcycle169" type="motorcycle_motorcycle" depart="66.79" departLane="best" departSpeed="max" from="598685154#0" to="220307072#1"/>
    <trip id="motorcycle171" type="motorcycle_motorcycle" depart="67.58" departLane="best" from="1119786561#0" to="-684283612#0"/>
    <trip id="motorcycle172" type="motorcycle_motorcycle" depart="67.97" departLane="best" from="-598767891#1" to="597550109#3"/>
    <trip id="motorcycle174" type="motorcycle_motorcycle" depart="68.76" departLane="best" from="-693286036#4" to="782027542#1"/>
    <trip id="motorcycle175" type="motorcycle_motorcycle" depart="69.16" departLane="best" departSpeed="max" from="-598767871" to="598767885#1"/>
    <trip id="motorcycle176" type="motorcycle_motorcycle" depart="69.55" departLane="best" from="-597619416" to="220307070#1"/>
    <trip id="motorcycle178" type="motorcycle_motorcycle" depart="70.34" departLane="best" departSpeed="max" from="-953277980" to="-598685154#1"/>
    <trip id="motorcycle179" type="motorcycle_motorcycle" depart="70.74" departLane="best" departSpeed="max" from="-953297055#1" to="889984929#2"/>
    <trip id="motorcycle180" type="motorcycle_motorcycle" depart="71.13" departLane="best" from="1262815037#1" to="598767887#1"/>
    <trip id="motorcycle181" type="motorcycle_motorcycle" depart="71.53" departLane="best" from="708607650#2" to="704641291#4"/>
    <trip id="motorcycle182" type="motorcycle_motorcycle" depart="71.92" departLane="best" departSpeed="max" from="-889984993" to="-1033758959"/>
    <trip id="motorcycle183" type="motorcycle_motorcycle" depart="72.32" departLane="best" from="764127634#1" to="704606544#2"/>
    <trip id="motorcycle184" type="motorcycle_motorcycle" depart="72.71" departLane="best" from="708533143#8" to="-946030639#0"/>
    <trip id="motorcycle185" type="motorcycle_motorcycle" depart="73.11" departLane="best" departSpeed="max" from="-953297055#1" to="704595018#0"/>
    <trip id="motorcycle186" type="motorcycle_motorcycle" depart="73.50" departLane="best" departSpeed="max" from="-598756379" to="-598686809#0"/>
    <trip id="motorcycle187" type="motorcycle_motorcycle" depart="73.90" departLane="best" from="1031913853#0" to="-1226367640#1"/>
    <trip id="motorcycle188" type="motorcycle_motorcycle" depart="74.29" departLane="best" departSpeed="max" from="-763602934" to="598767865#1"/>
    <trip id="motorcycle190" type="motorcycle_motorcycle" depart="75.08" departLane="best" from="-1110152447" to="-397993967#0"/>
    <trip id="motorcycle193" type="motorcycle_motorcycle" depart="76.27" departLane="best" from="-397992225#2" to="1262814304#1"/>
    <trip id="motorcycle194" type="motorcycle_motorcycle" depart="76.66" departLane="best" from="-1262814304#4" to="961713523#1"/>
    <trip id="motorcycle195" type="motorcycle_motorcycle" depart="77.06" departLane="best" from="598767887#0" to="763602932#3"/>
    <trip id="motorcycle196" type="motorcycle_motorcycle" depart="77.45" departLane="best" from="1112836175" to="37370971#1"/>
    <trip id="motorcycle197" type="motorcycle_motorcycle" depart="77.85" departLane="best" from="965574225" to="-889985037"/>
    <trip id="motorcycle198" type="motorcycle_motorcycle" depart="78.25" departLane="best" departSpeed="max" from="472432750" to="-705238975#1"/>
    <trip id="motorcycle199" type="motorcycle_motorcycle" depart="78.64" departLane="best" departSpeed="max" from="472432750" to="704606545#0"/>
    <trip id="motorcycle200" type="motorcycle_motorcycle" depart="79.04" departLane="best" from="1201840040#0" to="-477390127#1"/>
    <trip id="motorcycle202" type="motorcycle_motorcycle" depart="79.83" departLane="best" from="597550109#1" to="704641291#4"/>
    <trip id="motorcycle205" type="motorcycle_motorcycle" depart="81.01" departLane="best" from="374515768#1" to="1137523200"/>
    <trip id="motorcycle206" type="motorcycle_motorcycle" depart="81.41" departLane="best" departSpeed="max" from="-709289372#1" to="598767865#1"/>
    <trip id="motorcycle207" type="motorcycle_motorcycle" depart="81.80" departLane="best" from="-945322259#2" to="1075137416"/>
    <trip id="motorcycle208" type="motorcycle_motorcycle" depart="82.20" departLane="best" from="-369969171#2" to="705219053"/>
    <trip id="motorcycle209" type="motorcycle_motorcycle" depart="82.59" departLane="best" from="708533143#3" to="-399451682#1"/>
    <trip id="motorcycle211" type="motorcycle_motorcycle" depart="83.38" departLane="best" from="-1262814304#4" to="-889984962"/>
    <trip id="motorcycle212" type="motorcycle_motorcycle" depart="83.78" departLane="best" from="708533143#2" to="711379743#0"/>
    <trip id="motorcycle216" type="motorcycle_motorcycle" depart="85.36" departLane="best" from="693286036#2" to="708920950#0"/>
    <trip id="motorcycle217" type="motorcycle_motorcycle" depart="85.75" departLane="best" from="-1023619581#5" to="-684283625#1"/>
    <trip id="motorcycle218" type="motorcycle_motorcycle" depart="86.15" departLane="best" from="-684524088#1" to="763602935"/>
    <trip id="motorcycle220" type="motorcycle_motorcycle" depart="86.94" departLane="best" from="764842478" to="598788857#1"/>
    <trip id="motorcycle222" type="motorcycle_motorcycle" depart="87.73" departLane="best" from="708533143#4" to="-597136847#0"/>
    <trip id="motorcycle223" type="motorcycle_motorcycle" depart="88.12" departLane="best" from="-598686806#1" to="708533143#2"/>
    <trip id="motorcycle224" type="motorcycle_motorcycle" depart="88.52" departLane="best" departSpeed="max" from="-763602935" to="838425490#0"/>
    <trip id="motorcycle225" type="motorcycle_motorcycle" depart="88.92" departLane="best" from="1042201641" to="946030627#3"/>
    <trip id="motorcycle226" type="motorcycle_motorcycle" depart="89.31" departLane="best" from="-28924711#0" to="-675212141#2"/>
    <trip id="motorcycle227" type="motorcycle_motorcycle" depart="89.71" departLane="best" departSpeed="max" from="597136847#0" to="-708920951#0"/>
    <trip id="motorcycle230" type="motorcycle_motorcycle" depart="90.89" departLane="best" departSpeed="max" from="-599191522#1" to="397992225#5"/>
    <trip id="motorcycle231" type="motorcycle_motorcycle" depart="91.29" departLane="best" from="-597619420" to="397992225#3"/>
    <trip id="motorcycle232" type="motorcycle_motorcycle" depart="91.68" departLane="best" from="-156006452#1" to="704641291#4"/>
    <trip id="motorcycle234" type="motorcycle_motorcycle" depart="92.47" departLane="best" from="947077276#2" to="28924715#3"/>
    <trip id="motorcycle235" type="motorcycle_motorcycle" depart="92.87" departLane="best" departSpeed="max" from="-705219053" to="374515771#3"/>
    <trip id="motorcycle237" type="motorcycle_motorcycle" depart="93.66" departLane="best" from="946030659" to="374515771#4"/>
    <trip id="motorcycle238" type="motorcycle_motorcycle" depart="94.05" departLane="best" from="597550107#0" to="-397993967#0"/>
    <trip id="motorcycle239" type="motorcycle_motorcycle" depart="94.45" departLane="best" from="708920953#0" to="136176013#3"/>
    <trip id="motorcycle241" type="motorcycle_motorcycle" depart="95.24" departLane="best" from="1112836173" to="1213551136"/>
    <trip id="motorcycle243" type="motorcycle_motorcycle" depart="96.03" departLane="best" from="704606544#1" to="1075137416"/>
    <trip id="motorcycle244" type="motorcycle_motorcycle" depart="96.42" departLane="best" from="29313247#3" to="-708533143#8"/>
    <trip id="motorcycle245" type="motorcycle_motorcycle" depart="96.82" departLane="best" from="961664404" to="397992225#2"/>
    <trip id="motorcycle246" type="motorcycle_motorcycle" depart="97.21" departLane="best" from="601912140#0" to="465069893"/>
    <trip id="motorcycle248" type="motorcycle_motorcycle" depart="98.00" departLane="best" departSpeed="max" from="1033758959" to="763602936"/>
    <trip id="motorcycle249" type="motorcycle_motorcycle" depart="98.40" departLane="best" from="-954126480" to="-708576779#0"/>
    <trip id="motorcycle250" type="motorcycle_motorcycle" depart="98.79" departLane="best" from="598686800#2" to="598686799#1"/>
    <trip id="motorcycle251" type="motorcycle_motorcycle" depart="99.19" departLane="best" departSpeed="max" from="-472838714#0" to="-477390127#1"/>
    <trip id="motorcycle252" type="motorcycle_motorcycle" depart="99.58" departLane="best" from="50536193#7" to="-28924715#0"/>
    <trip id="motorcycle253" type="motorcycle_motorcycle" depart="99.98" departLane="best" from="-1023619581#4" to="-1231582014#0"/>
    <trip id="motorcycle254" type="motorcycle_motorcycle" depart="100.38" departLane="best" departSpeed="max" from="374515769#0" to="-705238975#0"/>
    <trip id="motorcycle257" type="motorcycle_motorcycle" depart="101.56" departLane="best" from="593638911#4" to="889984993"/>
    <trip id="motorcycle258" type="motorcycle_motorcycle" depart="101.96" departLane="best" departSpeed="max" from="684283612#0" to="546999873#4"/>
    <trip id="motorcycle259" type="motorcycle_motorcycle" depart="102.35" departLane="best" departSpeed="max" from="-953330595" to="37370975#5"/>
    <trip id="motorcycle260" type="motorcycle_motorcycle" depart="102.75" departLane="best" from="472431975#0" to="-889984934"/>
    <trip id="motorcycle261" type="motorcycle_motorcycle" depart="103.14" departLane="best" from="-50536193#0" to="-708920951#0"/>
    <trip id="motorcycle263" type="motorcycle_motorcycle" depart="103.93" departLane="best" departSpeed="max" from="-705219055" to="-397993693"/>
    <trip id="motorcycle265" type="motorcycle_motorcycle" depart="104.72" departLane="best" departSpeed="max" from="-763602932#3" to="-675212243#0"/>
    <trip id="motorcycle266" type="motorcycle_motorcycle" depart="105.12" departLane="best" from="-705244864#1" to="397992225#0"/>