<?xml version="1.0" encoding="UTF-8"?>

<!-- generated on 2024-08-23 15:22:36.786488 by osmWebWizard.py v1_20_0+0002-343658e7c64
<configuration>
    <net-file value="C:\Users\ADMIN\Sumo\2024-08-23-15-21-40\osm.net.xml.gz"/>
    <additional-files value="C:\Users\ADMIN\Sumo\2024-08-23-15-21-40\osm_stops.add.xml,C:\Users\ADMIN\Sumo\2024-08-23-15-21-40\osm_pt.rou.xml"/>
    <output-trip-file value="C:\Users\ADMIN\Sumo\2024-08-23-15-21-40\osm.pedestrian.trips.xml"/>
    <route-file value="C:\Users\ADMIN\Sumo\2024-08-23-15-21-40\osm.pedestrian.rou.xml"/>
    <persontrips value="True"/>
    <persontrip.walk-opposite-factor value="0.8"/>
    <prefix value="ped"/>
    <trip-attributes value="modes=&quot;public&quot;"/>
    <vehicle-class value="pedestrian"/>
    <fringe-factor value="2"/>
    <insertion-density value="20.0"/>
    <duarouter-weights.tls-penalty value="20"/>
</configuration>
-->

<!-- generated on 2024-08-23 15:22:33 by Eclipse SUMO duarouter Version 1.20.0
<configuration xmlns:xsi="http://www.w3.org/2001/XMLSchema-instance" xsi:noNamespaceSchemaLocation="http://sumo.dlr.de/xsd/duarouterConfiguration.xsd">

    <input>
        <net-file value="C:\Users\ADMIN\Sumo\2024-08-23-15-21-40\osm.net.xml.gz"/>
        <additional-files value="C:\Users\ADMIN\Sumo\2024-08-23-15-21-40\osm_stops.add.xml,C:\Users\ADMIN\Sumo\2024-08-23-15-21-40\osm_pt.rou.xml"/>
        <route-files value="C:\Users\ADMIN\Sumo\2024-08-23-15-21-40\osm.pedestrian.trips.xml"/>
    </input>

    <output>
        <output-file value="C:\Users\ADMIN\Sumo\2024-08-23-15-21-40\osm.pedestrian.rou.xml"/>
        <alternatives-output value="NUL"/>
    </output>

    <processing>
        <weights.tls-penalty value="20"/>
        <persontrip.walk-opposite-factor value="0.8"/>
    </processing>

    <time>
        <begin value="0.0"/>
        <end value="3600.0"/>
    </time>

    <report>
        <no-warnings value="true"/>
        <ignore-errors value="true"/>
        <no-step-log value="true"/>
    </report>

</configuration>
-->

<routes xmlns:xsi="http://www.w3.org/2001/XMLSchema-instance" xsi:noNamespaceSchemaLocation="http://sumo.dlr.de/xsd/routes_file.xsd">
    <vType id="ped_pedestrian" vClass="pedestrian"/>
    <person id="ped1" type="ped_pedestrian" depart="2.18">
        <walk edges="-826874588#1 -826874588#0 -596802424 -596802428#0 1106598512#3 1106611076#0 1106791070#1 1106611078#14 1106791065#9 1106791065#8 708546432 708546430 708546431#1 1106791064#3 1106791064#4 1106791064#5 1106791064#6 -684283617#0"/>
    </person>
    <person id="ped2" type="ped_pedestrian" depart="4.35">
        <walk edges="1218545606 1218545602#1 1218545603 1107305108#1 1107305113#0 1107305113#1 1107305110#0 1107666407 1107666406#2 1218545595#0 1218545595#1 1107666408#0 1107305088#0 1107305088#1 1107305088#2 1107305115#0 1107305115#1 1107305099#1 1222208995#1 1107305098#1 863044703 863044704 863044705 1106598506#0 1106598506#1 1106598506#2 -856290141#1 -856290141#0 856290142#0 1206423369#1 1207215775#0"/>
    </person>
    <person id="ped3" type="ped_pedestrian" depart="6.53">
        <walk edges="617320300#0 -890573929 -602362883 459315213#3 459315213#4 1107104324#1 1107104324#2 1107104324#3 1107104324#4 1107104324#5 1107104326#1 1107104320#1 1107104320#2 1107104320#3 1107104323#1 1107104323#0 1107104322#6 704617414#0 704617414#1 704617414#2 1106598506#5 1106598506#4 1206423369#0 856290142#1 856290142#2 856290142#4 -856290139#2 -856290139#1 856290137#3 1208525181#0 1208525186#1 1106598514#0 1106598514#1 1106598514#2 1106598514#3 1106598514#4 1106598518#0 1106598518#1 1106598517#6 -708550657#1 1267842566#0 1267842566#1 708550656#0 708550656#1 1267842580#3 -1267842580#3"/>
    </person>
    <person id="ped4" type="ped_pedestrian" depart="8.71">
        <walk edges="1106611078#8 1106611078#9 1106611078#10 1106611078#11 1106611078#12 1106611076#0 1106598512#3 1106598512#2 1106598512#1 1206838360#1 1206838359#1 1106598528#1 -1106598528#2"/>
    </person>
    <person id="ped6" type="ped_pedestrian" depart="13.06">
        <walk edges="-1083919818 318479651#4 -598791588 -598791590"/>
    </person>
    <person id="ped7" type="ped_pedestrian" depart="15.24">
        <walk edges="1206838362#3 1206838362#4 824886232#4 -1196399802 856290142#1 1206423369#0 1106598506#4 1106598506#5 1106598506#6 1106598506#7 1106598506#8 1106598506#9 1106598534#9 597126912 136161116#1 136161116#0 597126913 1106611082#1 -711525255#1 -711525255#0 -1192868606#0 -11707000#2 11707000#2"/>
    </person>
    <person id="ped8" type="ped_pedestrian" depart="17.42">
        <walk edges="-601455470#1 1211217611#1 1211217608#1 -863044706#0 1106598515#0 1106598515#1 1106598515#2 1106598514#6 1106598514#5 1106598514#4 1106598514#3 1106598532#0 1106598532#1 856290140#1 1106598528#1 1106598528#2 1196399806"/>
    </person>
    <person id="ped10" type="ped_pedestrian" depart="21.77">
        <walk edges="597126909#1 1106611078#7 1106611078#8 1106611078#9 1106611078#10 1106611078#11 1106611078#12 1106611076#0 1106598512#3 1106598512#2 1106598512#1 1206838360#1 1106598532#2 1106598532#1 856290137#1 1106598514#1 1106598514#0 1208525186#1 1206943175#3 1206943175#2 1208526765#0"/>
    </person>
    <person id="ped15" type="ped_pedestrian" depart="32.66">
        <walk edges="597126912 1106598534#9 1106598506#9 1106598506#8 1106598506#7 1106598506#6 1106598506#5 1106598506#4 1206423369#0 1206423369#1 1207215775#0 1207215775#1 1207215775#2 1206532585#1 1219188526"/>
    </person>
    <person id="ped17" type="ped_pedestrian" depart="37.02">
        <walk edges="1106598512#1 1206838360#1 1206838359#1 1206838359#0 1106598524#2 1196399766#2 1196399766#1 1196399766#0 1206423371#6 1206423371#5 1206423371#4 1206423371#3 1196399767#0 1196399767#1 1207215782#3 1207215782#2 1207215782#1 1207215781#1 1206423369#1 1206423369#0 1106598506#4 1106598506#5 704617414#2 704617414#1 704617414#0 1107104322#6 1107104323#0 1107104323#1 1107104320#3 1107104320#2 1107104320#1 1107104326#1 1107104324#5 -1107104325#0 -597126921#3 -597126921#2 -897398092#1 1192885695"/>
    </person>
    <person id="ped20" type="ped_pedestrian" depart="43.55">
        <walk edges="1208526762#1 1208526762#0 1208526768#0 -1217463137#3 1206943183#1 1206943176#0 1206943176#1 1206943176#2 1206671091 1206671090#3 1206671090#2 1206671090#1 1206671088#1 1206838365#3 1206838366#1 1206838366#0 1206838363#1 1206838363#4 1206838364#1 824886232#4 -1196399802 856290142#1 1206423369#0 1106598506#4 1106598506#5 1106598506#6 1106598506#7 1106598506#8 1106598506#9 1106598534#9 597126912 136161116#1 136161116#0 597126913 1106611082#2 825404708#1 825404708#2 -1192868589"/>
    </person>
    <person id="ped24" type="ped_pedestrian" depart="52.26">
        <walk edges="1206532596 1206532589#2 856290146#2 -905363915#1 -905363915#0 1217463138 1207141796#0 1207141795#1 -1217463137#5 -1217463137#4 -1217463137#3 -1217463137#2 1208526769#0 1206943175#2 1206943175#3 1208525186#1 1106598514#0 1106598514#1 856290137#1 1106598532#1 1106598532#2 1206838360#1 1106598513#0 1106598513#1"/>
    </person>
    <person id="ped25" type="ped_pedestrian" depart="54.44">
        <walk edges="1106598507#0 1106611077#0 1106791070#0 1106598534#1 1106598534#2 -480685836#4 -480685836#3 -480685836#2 -480685836#1 1106598506#8 1106598506#7 1106598506#6 1106598506#5 1106598506#4 1106598506#3 1106598506#2 1106598506#1 1106598506#0 863044705 863044704 863044703 1107305098#1 1222208995#1 1107305099#1 1107305100#1 -719345489#3 601456708 -601456708"/>
    </person>
    <person id="ped28" type="ped_pedestrian" depart="60.97">
        <walk edges="-597555259#0 597555259#1 -597555260#1 1106611087#1 1106611087#0 1106611078#0 1106611078#1 1106611078#2 1106611078#3 1107305073 136161116#1 597126912 1106598534#9 1106598506#9 1106598506#8 1106598506#7 1106598506#6 1106598506#5 1106598506#4 1206423369#0 856290142#1 1196399802 824886232#4 1206838364#1 1206838363#4 1219188525#3"/>
    </person>
    <person id="ped29" type="ped_pedestrian" depart="63.15">
        <walk edges="-597136848#6 1106611087#0 1106611078#0 1106611078#1 136161120#1 1202722726#0 1106611078#8 1106611078#9 1106611078#10 1106611078#11 1106611078#12 1106611076#0 1106598512#3 1106598512#2 1106598512#1 1106598513#0 1106598513#1 1106598509#7 1106598533#0 1106598533#1 1106598519#3"/>
    </person>
    <person id="ped30" type="ped_pedestrian" depart="65.32">
        <walk edges="897413529#1 1106598506#4 1206423369#0 856290142#1 1196399802 824886232#4 1206838362#4 1206838362#3"/>
    </person>
    <person id="ped37" type="ped_pedestrian" depart="80.57">
        <walk edges="1206838364#0 1206838364#1 1206838363#4 1219188525#2 1219188525#1 856290142#4 -856290139#2 -856290139#1 856290140#0 1206838359#1 1206838360#1 1106598512#1 1106611081#0 -1213647550#1 1106598509#3 1106598509#1 1106611076#1"/>
    </person>
    <person id="ped38" type="ped_pedestrian" depart="82.74">
        <walk edges="704617414#2 1106598506#5 1106598506#4 1106598506#3 1106598506#2 1106598506#1 702919610#2 702919610#1 702919610#0 1107104322#4"/>
    </person>
    <person id="ped41" type="ped_pedestrian" depart="89.28">
        <walk edges="1196399756#1 1206838366#0 1206838363#1 1206838363#4 1206838364#1 824886232#4 -1196399802 856290142#1 1206423369#0 1106598506#4 1106598506#5 1106598506#6 1106598506#7 1106598506#8 1106598506#9 1106598534#9 597126912 136161116#1 136161116#0 597126913 1106611082#2 1106611082#3 1106611082#4 1106611082#5 1106611089#1 1106611089#2 1106791068#1 1106791069 856460795 1107305079 1107305080#1 1107305077#10 1107305077#9 1107305077#8 684728089#1"/>
    </person>
    <person id="ped42" type="ped_pedestrian" depart="91.45">
        <walk edges="1106598524#1 1196399766#2 1196399766#1 1196399766#0 1206423371#6 1206423371#5 1206423371#4 1206423371#3 1196399767#0 1196399767#1 1207215782#3 1207215782#2 1207215782#1 1207215781#1 1206423369#1 1206423369#0 1106598506#4 1106598506#5 704617414#2 704617414#1 704617414#0 1107104322#6 1107104319#9 1107104319#8 1107104319#7 1107104319#6 1107104319#5 1107104319#4 1107104319#3 1107104319#2 1107104319#1 -683871828#0"/>
    </person>
    <person id="ped43" type="ped_pedestrian" depart="93.63">
        <walk edges="953320554#0 -684728087#1 1107305077#9 1107305077#10 1107305080#1 1107305079 856460795 1106791069 1106791068#1 1106611089#2 1106611089#1 1106611082#5 1106611082#4 1106611082#3 1106611082#2 1106611082#1 1106611082#0 1107104323#1 1107104323#0 1107104322#6 1107104322#5 1107104322#4 1107104322#3 1107104322#2 1107104322#1 1107104322#0 1107305098#1 1222208995#1 1107305099#1 1107305115#1"/>
    </person>
    <person id="ped45" type="ped_pedestrian" depart="97.99">
        <walk edges="-1267842575 -1136892216#0 1136892216#1 -708550656#1 -708550656#0 -1267842566#1 -1267842566#0 708550657#1 1106598517#6 1106598518#1 1106598518#0 1106598514#4 1106598514#3 1106598514#2 1106598514#1 1106598514#0 1208525186#1 1206943175#3 1206943178#1 1206943178#0 1206943177#0 1206671091 1206671090#3 1206671090#2 1206671090#1 1206671088#1 1206671089#1"/>
    </person>
    <person id="ped46" type="ped_pedestrian" depart="100.16">
        <walk edges="546999873#5 546999873#4 546999873#3 546999873#0 -597550099#1 -597550099#0 598791588 -318479651#4 -318479651#3 -318479651#2 -318479651#1 1106611082#5 1111687927#1 1111687927#0 1111687926 708656387#1 708656387#2 1106611090#3 1107666375#0 1107666375#1 1106611083#0 1106611085#0 1120703701#0 1120703701#1 1106611087#3 1106611088#1 1106611088#2 1106611088#3 1106611088#4 1106611088#5"/>
    </person>
    <person id="ped47" type="ped_pedestrian" depart="102.34">
        <walk edges="-1192885696#4 -1192885701 1192885700#1 -180082258#0 11707000#0 597126921#0 597126921#1 597126921#2 597126921#3 1107104325#0 1107104324#5 1107104326#1 1107104320#1 1107104320#2 1107104320#3 1107104323#1 1107104323#0 1107104322#6 704617414#0 704617414#1 704617414#2 1106598506#5 1106598506#4 1206423369#0 856290142#1 856290142#2 1207215782#2 1207215782#3 1196399767#1 1196399767#0 1206423371#3 1206423371#4 1206423371#5 1206423371#6 1196399766#0 1196399766#1 1206838358#3 1106598524#0"/>
    </person>
    <person id="ped53" type="ped_pedestrian" depart="115.41">
        <walk edges="-1267842581 -708550656#0 -1267842566#1 -1267842566#0 708550657#1 1106598517#6 1106598518#1 1106598518#0 1106598514#4 1106598514#3 1106598532#0 1106598532#1 1106598532#2 1206838360#1 1106598512#1 1106611081#0 -1213647550#1 1106598509#3 1106598509#1 1106611076#1 1106611077#1 1106611072#0 1106791064#0 1106791064#1 708546431#0 708546431#1 1106791064#3 1106791064#4 1106791064#5 1106791064#6 1106791064#7 1106791064#8"/>
    </person>
    <person id="ped54" type="ped_pedestrian" depart="117.58">
        <walk edges="1106791065#2 1106791065#3 1106791065#4 1106791065#5 1106791065#6 1106791065#7 1106791065#8 1106791065#9 1106611078#14 1106791070#1 1106791070#0 1106598534#1 1106598534#2 -480685836#4 -480685836#3 -480685836#2 -480685836#1 1106598506#8 1106598506#7 1106598506#6 1106598506#5 1106598506#4 1106598506#3 1106598506#2 1106598506#1 1106598506#0 863044706#0 -1211217609#0 -1211217608#0 863044711#0 863044710 863044709"/>
    </person>
    <person id="ped58" type="ped_pedestrian" depart="126.29">
        <walk edges="-890573918 -602362882#2 -602362882#1 1107104319#2 1107104319#3 1107104319#4 1107104319#5 1107104319#6 1107104319#7 1107104319#8 1107104319#9 1107104322#6 704617414#0 704617414#1 704617414#2 1106598506#5 1106598506#4 1206423369#0 856290142#1 1196399802 824886232#4 1206838362#4 1206838362#3 1206838362#2 1206838362#1"/>
    </person>
    <person id="ped60" type="ped_pedestrian" depart="130.65">
        <walk edges="1290403396#1 -1290403396#0 -816208527#2 -816208527#1 1136643893"/>
    </person>
    <person id="ped65" type="ped_pedestrian" depart="141.54">
        <walk edges="-905363915#10 1196399800#0 1196399800#1 1206838362#4 1206838362#3 1206838362#2 1207215785 1196399742#1 596802451#0 596802451#1 596802451#2 596802451#3 596802451#4 1207074263 -1197061361#0"/>
    </person>
    <person id="ped67" type="ped_pedestrian" depart="145.89">
        <walk edges="-1218545613 1218545613 597136848#4 597136848#5 1106611087#0 1106611078#0 1106611078#1 1106611078#2 1106611078#3 1107305073 136161116#1 597126912 1106598534#9 1106598506#9 1106598506#8 1106598506#7 1106598506#6 1106598506#5 1106598506#4 1106598506#3 1106598506#2 1106598506#1 1106598506#0 863044705 863044704 863044703 1107305098#1 1222208995#1 1107305099#1 1107305115#1 1107305115#0 1107305088#2"/>
    </person>
    <person id="ped70" type="ped_pedestrian" depart="152.42">
        <walk edges="1107104322#4 1107104322#5 1107104322#6 1107104323#0 1107104323#1 1106611082#0 1106611082#1 1106611082#2 1106611082#3 1106611082#4 1106611082#5 1111687927#1 1111687927#0 1111687926 708656387#1 708656387#2 1106611090#1 1106791067#2 1106791067#1 1106791067#0 1106611092#3 1106611093 1107305074#0 1107305074#1 1109199309#1 1109199309#2 1184245773#1"/>
    </person>
    <person id="ped71" type="ped_pedestrian" depart="154.60">
        <walk edges="-719345489#2 719345489#3 1107305100#1 1107305099#1 1222208995#1 1107305098#1 1107104322#0 601861003#1 -593642478#0 596788386#1 -675260241#4 601455474#0"/>
    </person>
    <person id="ped72" type="ped_pedestrian" depart="156.78">
        <walk edges="1106611079#0 1106611078#14 1106791070#1 1106791070#0 1106598534#1 1106598534#2 -480685836#4 -480685836#3 -480685836#2 -480685836#1 1106598506#8 1106598506#7 1106598506#6 1106598506#5 1106598506#4 1106598506#3 1106598506#2 1106598506#1 1106598506#0 863044705 863044704 863044703 1107305098#1 1222208995#1 1107305099#1 1107305115#1 1107305115#0 1107305088#2 1107305088#1 1107305088#0 1107666408#0 1218545595#1 -601867552#2"/>
    </person>
    <person id="ped76" type="ped_pedestrian" depart="165.49">
        <walk edges="1106611088#4 1113733615#0 1113733615#1 1113733615#2 1113733615#3 1113733615#4 1109199310#3"/>
    </person>
    <person id="ped78" type="ped_pedestrian" depart="169.84">
        <walk edges="1080880645#3 1080884318#1 1080884321#1 1080884321#0 1080880645#5 1080880645#6 -601455470#1 1211217611#1 1211217608#1 -863044706#0 1106598506#0 1106598506#1 1106598506#2 -856290141#1 -856290141#0 856290142#0 856290142#1 1196399802"/>
    </person>
    <person id="ped79" type="ped_pedestrian" depart="172.02">
        <walk edges="-601861003#2 593642478#1 593642478#2 1107104322#3 702919610#0 702919610#1 702919610#2 1106598506#1 1106598506#2 1106598506#3 1106598506#4 1106598506#5 1106598506#6 1106598506#7 1106598506#8 480685836#1 480685836#2 480685836#3 480685836#4 1106598534#2 1106598534#1 1106791070#0 1106791070#1 1106611078#14 1106791065#9 1106791065#8 1106791065#7 1106791065#6 1106791065#5 1106791065#4 1106791065#3 1106791065#2 -683876834#1"/>
    </person>
    <person id="ped80" type="ped_pedestrian" depart="174.20">
        <walk edges="-1196399801#1 1196399801#2 1196399801#3 1196399801#4 1196399800#1 1206838364#1 1206838363#4 1206838363#1 1206838366#0 1206838366#1 1206838365#3 1206671088#1 1206671090#1 1206671090#2 1206671090#3 1206671092#1"/>
    </person>
    <person id="ped81" type="ped_pedestrian" depart="176.38">
        <walk edges="-601578008#0 -601455484#0 719345489#2 719345489#3 1107305100#1 1107305099#1 1222208995#1 1107305098#1 1107104322#0 1107104322#1 1107104322#2 1107104322#3 1107104322#4 1107104322#5 1107104322#6 1107104323#0 1107104323#1 1106611082#0 1106611082#1 1106611082#2 1106611082#3 704648918#1 704648918#2"/>
    </person>
    <person id="ped83" type="ped_pedestrian" depart="180.73">
        <walk edges="-683876834#2 1106791065#2 1106791065#3 1106791065#4 1106791065#5 1106791065#6 1106791065#7 1106791065#8 1106791065#9 1106611078#14 1106791070#1 1106611076#0 1106598512#3 1106598512#2 1106598512#1 1206838360#1 1106598532#2 1106598532#1 856290137#1 1106598514#1 1106598514#0 1208525186#1 1206943175#3 1206943175#2 1208526769#0 1217463137#2 1217463137#3 1217463137#4 1217463137#5 1207141795#1 1207141796#0 1217463139 905363915#0 1207074267"/>
    </person>
    <person id="ped85" type="ped_pedestrian" depart="185.09">
        <walk edges="816208527#0 675260241#3 675260241#4 -596788386#1 593642478#0 593642478#1 593642478#2 1107104322#3 702919610#0 702919610#1 702919610#2 1106598506#1 1206838362#7 -905363915#10 -905363915#9 -905363915#8 -905363915#7 856290144#0 1207479209#4 1207479212#1 1196812865#0 1196812865#1 1196812864#1 1196399779 1196399778#0 1196399778#1 1196399741#3 1196399755#0 1196399755#1"/>
    </person>
    <person id="ped89" type="ped_pedestrian" depart="193.80">
        <walk edges="1106611079#1 1106611079#0 1106611078#14 1106791070#1 1106611078#12 1106611078#11 1106611078#10 1106611078#9 1106611078#8 1106611078#7 1106611078#6 1106611078#5 1106611078#4 1107305073 136161116#0 597126913 1106611082#1 1106611082#0 1107104320#3 1107104320#2 1107104320#1 1107104326#1 1107104324#5 1107104324#4 1107104324#3 1107104324#2 1107104328#1 1107104328#0"/>
    </person>
    <person id="ped90" type="ped_pedestrian" depart="195.97">
        <walk edges="1218545597#4 1218545597#1 1218545600 1107305088#2 1107305115#0 1107305115#1 1107305099#1 1222208995#1 1107305098#1 863044703 863044704 863044705 1106598515#0 -179997645#1 -179997645#0 -905363915#4 -905363915#3 -905363915#2 -905363915#1 -905363915#0 1217463138 1207141796#0 1207141795#1"/>
    </person>
    <person id="ped91" type="ped_pedestrian" depart="198.15">
        <walk edges="890573918 602362882#3 897399611 593642479#5 593642479#6 593642479#7 593642479#8 675260241#3 675260241#4 -596788386#1 593642478#0 -601861003#1 1107104322#0 1107305098#1 -242518346#0"/>
    </person>
    <person id="ped95" type="ped_pedestrian" depart="206.86">
        <walk edges="1106611078#8 1106611078#7 1106611078#6 1106611078#5 1106611078#4 1107305073 136161116#0 597126913 1106611082#1 -711525255#1 -711525255#0 -1192868606#0 -11707000#2 -11707000#1 597126921#0 597126921#1 -897398092#1"/>
    </person>
    <person id="ped98" type="ped_pedestrian" depart="213.39">
        <walk edges="1125585782#1 1106791064#8 1106791064#7 1106791064#6 1106791065#6 708546429#1 597555264#1 913797000 597136850#2 597136850#3 597136850#4 597136850#5 597136850#6 1106611078#1 1106611078#2 1106611078#3 1107305073 136161116#0 597126913 1106611082#1 -711525255#1 -711525255#0 -1192868606#0 -11707000#2 -11707000#1 -11707000#0 180082258#0 -1192885700#1 1192885701 -1192885701"/>
    </person>
    <person id="ped102" type="ped_pedestrian" depart="222.10">
        <walk edges="1107122328#0 1107122328#1 1107122328#2 1107122328#3 -683871825#0 -318479651#4 -318479651#3 -1040489035 242518348#3 242518348#4 -180082258#0 11707000#0 597126921#0 597126921#1 597126921#2 597126921#3 597126921#4 1107104324#3 1107104324#2 1107104324#1 -459315213#4 -459315213#3 602362883 -602362883"/>
    </person>
    <person id="ped103" type="ped_pedestrian" depart="224.28">
        <walk edges="1106598532#0 1106598532#1 1106598532#2 1206838360#1 1106598512#1 1106598512#2 1106598512#3 1106611076#0 1106611078#12 1106611078#11 1106611078#10 1106611078#9 1106611078#8 1106611078#7 1106611078#6 1106611078#5 1106611078#4 1107305073 136161116#0 597126913 1106611082#2 1106611082#3 1106611082#4 318479651#1 318479651#2 318479651#3 318479651#4 -598791588 597550099#0 597550099#1 546999873#0 1201678931 -1201678931"/>
    </person>
    <person id="ped104" type="ped_pedestrian" depart="226.46">
        <walk edges="1106598512#1 1206838360#1 1106598532#2 1106598532#1 1106598532#0 1106598514#3 1106598514#4 1106598514#5 1106598514#6 1106598515#2 1106598515#1 1106598515#0 863044705 863044704 863044703 1107305098#1 1222208995#1 1107305099#1 1107305100#1 1107305096#4 1107305096#3 1107305096#2 1107305096#1 1107305101#1 1107305101#0 1107305086#1 1107305086#2 896652159"/>
    </person>
    <person id="ped106" type="ped_pedestrian" depart="230.81">
        <walk edges="1106791065#4 1106791065#3 1106791065#2 1106791065#1 1106791065#0 1106611088#5 1106611088#4 1106611088#3 1106611088#2 1106611088#1 1106611087#3 1120703701#1 1120703701#0 1106611085#0 1106611083#0 1107666375#1 1107666375#0 1106611090#3 708656387#2 708656387#1 1111687926 1111687927#0 1111687927#1 1106611089#1 1106611089#2"/>
    </person>
    <person id="ped109" type="ped_pedestrian" depart="237.35">
        <walk edges="-596802483#1 1196399767#1 1207215782#3 1207215782#2 1207215782#1 1207215781#1 1206423369#1 1206423369#0 1106598506#4 1106598506#5 704617414#2 704617414#1 704617414#0 1107104322#6 1107104319#9 1107104319#8 1107104319#7 1107104319#6 1107104319#5 593642479#1 1023619586#0 1023619588 1023619587#1"/>
    </person>
    <person id="ped110" type="ped_pedestrian" depart="239.52">
        <walk edges="877859666#0 877859660#3 877859660#2 840613332 840613329 840613331 874039753#1 874039753#0 1106598517#0 1106598516#0 1106598514#6 1106598515#2 856290146#1 856290146#2 -905363915#1 1207074267 -1197061361#0 1196399743#0 1196399743#1 1196399743#2 1196399771"/>
    </person>
    <person id="ped114" type="ped_pedestrian" depart="248.23">
        <walk edges="-597126916#1 -1192868606#2 711525255#0 711525255#1 1106611082#1 597126913 136161116#0 136161116#1 597126912 1106598534#9 1106598506#9 1106598506#8 1106598506#7 1106598506#6 1106598506#5 1106598506#4 1106598506#3 1106598506#2 1206838362#7 -905363915#10 -905363915#9 -905363915#8 -905363915#7 -905363915#6 -905363915#5 179997645#0 179997645#1 1106598515#1 1106598515#2 1106598514#6 1106598516#0 1106598517#0 874039753#0 874039753#1 840613331 840613329 840613333 877859660#1"/>
    </person>
    <person id="ped116" type="ped_pedestrian" depart="252.59">
        <walk edges="1196399778#0 1196399778#1 1196399741#4 1207341818#0 1207479209#1 1206838362#1 1206838362#2 824886232#1 1206838362#4 824886232#4 -1196399802 856290142#1 1206423369#1 1207215775#0 1207215775#1 1207215772#1"/>
    </person>
    <person id="ped117" type="ped_pedestrian" depart="254.77">
        <walk edges="-675260241#0 675260241#1 675260241#2 -593642479#8 -593642479#7 -593642479#6 -593642479#5 -593642479#4 -593642479#2"/>
    </person>
    <person id="ped119" type="ped_pedestrian" depart="259.12">
        <walk edges="1196399774#1 1196399741#1 1196399741#2 1196399741#3 1196399741#4 1196399742#0 1196399756#1 1206532587 -856290139#2 -596802483#2 1196399767#0 1206423371#2 1206423371#1 1206423372"/>
    </person>
    <person id="ped120" type="ped_pedestrian" depart="261.30">
        <walk edges="1106611078#3 1107305073 136161116#1 597126912 1106598534#9 1106598506#9 1106598506#8 1106598506#7 1106598506#6 1106598506#5 1106598506#4 1106598506#3 1106598506#2 1206838362#7 -905363915#10 -905363915#9 -905363915#8 -905363915#7 856290144#0 1207479209#4 1207479212#1 1196812865#0 1196812865#1 1196812864#1 1196399779 1196399778#0 1196399778#1"/>
    </person>
    <person id="ped121" type="ped_pedestrian" depart="263.48">
        <walk edges="1107305113#0 1107305113#1 1107305110#0 1107666407 1107666406#2 1218545595#0 1218545595#1 1107666408#0 1107305088#0 1107305088#1 1107305088#2 1107305115#0 1107305115#1 1107305099#1 1222208995#1 1107305098#1 863044703 863044704 863044705 1106598506#0 1106598506#1 1106598506#2 1106598506#3 1106598506#4 1106598506#5 1106598506#6 1106598506#7 826873321#1 -596802428#2 -596802428#1 596802424 826874588#0 826874588#1"/>
    </person>
    <person id="ped123" type="ped_pedestrian" depart="267.83">
        <walk edges="-683876838#1 1106611078#12 1106611076#1"/>
    </person>
    <person id="ped126" type="ped_pedestrian" depart="274.36">
        <walk edges="-1196399806 -1106598528#2 -1106598528#1 1206838359#0 1106598524#2 1196399766#2 1196399766#1 36730545#1 856290139#1 856290139#2 856290143#0 1219188525#2 1206838363#4 1206838364#1 -1196399800#1 -1196399800#0 1206838362#7 1106598506#1 702919610#2 702919610#1 702919610#0 1107104322#3"/>
    </person>
    <person id="ped128" type="ped_pedestrian" depart="278.72">
        <walk edges="-1197035532 -597555261#4 -597555261#3 -597555261#2 -597555261#1 -597555261#0 597555264#0 597555264#1 913797000 597136850#2 597136850#3 597136850#4 597136850#5 597136850#6 1106611078#1 1106611078#2 1106611078#3 1107305073 136161116#0 597126913 1106611082#1 1106611082#0 1107104320#3 1107104320#2 1107104320#1 1107104326#1 1107104324#5 1107104324#4 1107104324#3 1107104324#2 1107104328#1 1107104328#0 1107104319#2 602362882#1 -602362882#2"/>
    </person>
    <person id="ped129" type="ped_pedestrian" depart="280.90">
        <walk edges="-719345489#2 719345489#3 1107305100#1 1107305099#1 1222208995#1 1107305098#1 863044703 863044704 863044705 1106598506#0 1106598506#1 1106598506#2 1106598506#3 1106598506#4 1106598506#5 1106598506#6 1106598506#7 826873321#1 -596802428#2 -596802428#1 -596802428#0 826873318#1"/>
    </person>
    <person id="ped130" type="ped_pedestrian" depart="283.07">
        <walk edges="601455470#1 1211217611#1 1211217608#1 -863044706#0 863044705 863044704 863044703 1107104322#0 601861003#1"/>
    </person>
    <person id="ped133" type="ped_pedestrian" depart="289.61">
        <walk edges="1197035532 -597555261#4 -597555261#3 -597555261#2 -597555261#1 -597555261#0 597555264#0 597555264#1 913797000 597136850#2 597136850#3 597136850#4 597136850#5 597136850#6 1106611078#1 1106611078#2 1106611078#3 1107305073 136161116#0 597126913 1106611082#1 1106611082#0 1107104320#3 1107104320#2 1107104320#1 1107104326#1 1107104324#5 1107104324#4 1107104324#3 1107104324#2 1107104328#1 1107104328#0 1107104319#2 602362882#1 602362882#2 602362882#3 897399611"/>
    </person>
    <person id="ped136" type="ped_pedestrian" depart="296.14">
        <walk edges="1206943175#3 1208525186#1 1106598514#0 1106598514#1 1106598514#2 1106598514#3 1106598514#4 1106598518#0 1106598518#1 1106598517#6 1106598517#5 1106598517#4 1106598517#3 1106598517#2 1106598517#0 874039753#0 874039753#1 840613331 840613329 840613332"/>
    </person>
    <person id="ped138" type="ped_pedestrian" depart="300.49">
        <walk edges="-1267842571#2 1267842573 -1267842572#1 1106598516#0 1106598514#6 1106598515#2 1106598515#1 -179997645#1 -179997645#0 905363915#5 905363915#6 905363915#7 905363915#8 905363915#9 905363915#10 1206838362#7 1106598506#2 1106598506#3 1106598506#4 1106598506#5 704617414#2 704617414#1 704617414#0 1107104322#6 1107104323#0 1107104323#1 1107104320#3 1107104320#2 1107104320#1 1107104326#1 1107104324#5 -1107104325#0 -597126921#3 -597126921#2 -597126921#1 -597126921#0 -11707000#0 180082258#0 -1192885700#1 -1192885700#0 1192885696#3 1192885696#4"/>
    </person>
    <person id="ped139" type="ped_pedestrian" depart="302.67">
        <walk edges="-816208527#4 -816208527#3 -816208527#2 -816208527#1 -816208527#0 675260241#3 675260241#4 -596788386#1 593642478#0 593642478#1 593642478#2 1107104322#3 702919610#0 702919610#1 702919610#2 1106598506#1 1206838362#7 1196399800#0 1196399800#1 1206838362#4 1206838362#3 1206838362#2 1207215785 1196399742#1 596802451#0 1197061359#1 1197061359#0"/>
    </person>
    <person id="ped140" type="ped_pedestrian" depart="304.85">
        <walk edges="1209295526 1209295528#0 596802464#1 1217463137#5 1207141795#1 1207141796#0 1217463139 905363915#0 905363915#1 905363915#2 905363915#3 905363915#4 179997645#0 179997645#1 1106598515#0 863044705 863044704 863044703 1107305098#1 1222208995#1 1107305099#1 1107305100#1 1107305096#4 601455463#1 -601455463#1"/>
    </person>
    <person id="ped142" type="ped_pedestrian" depart="309.20">
        <walk edges="1107305073 136161116#0 597126913 1106611082#2 1106611082#3 704648918#1 704648918#2"/>
    </person>
    <person id="ped148" type="ped_pedestrian" depart="322.27">
        <walk edges="1106611082#2 1106611082#3 1106611082#4 318479651#1 318479651#2 318479651#3 318479651#4 683871825#0 1107122328#3 1040490063#1 -1040490063#1"/>
    </person>