<?xml version="1.0" encoding="UTF-8"?>

<!-- generated on 2024-09-06 19:06:25.310438 by osmWebWizard.py v1_20_0+0002-343658e7c64
<configuration>
    <net-file value="C:\Users\legion\2024-09-06-19-06-13\osm.net.xml.gz"/>
    <output-trip-file value="C:\Users\legion\2024-09-06-19-06-13\osm.passenger.trips.xml"/>
    <route-file value="C:\Users\legion\2024-09-06-19-06-13\osm.passenger.rou.xml"/>
    <prefix value="veh"/>
    <trip-attributes value="departLane=&quot;best&quot;"/>
    <fringe-start-attributes value="departSpeed=&quot;max&quot;"/>
    <vehicle-class value="passenger"/>
    <lanes value="True"/>
    <fringe-factor value="5"/>
    <allow-fringe.min-length value="1000.0"/>
    <via-edge-types value="highway.motorway,highway.motorway_link,highway.trunk_link,highway.primary_link,highway.secondary_link,highway.tertiary_link"/>
    <min-distance value="300.0"/>
    <min-distance.fringe value="10.0"/>
    <remove-loops value="True"/>
    <validate value="True"/>
    <insertion-density value="120.0"/>
</configuration>
-->

<!-- generated on 2024-09-06 19:06:25 by Eclipse SUMO duarouter Version 1.20.0
<configuration xmlns:xsi="http://www.w3.org/2001/XMLSchema-instance" xsi:noNamespaceSchemaLocation="http://sumo.dlr.de/xsd/duarouterConfiguration.xsd">

    <input>
        <net-file value="C:\Users\legion\2024-09-06-19-06-13\osm.net.xml.gz"/>
        <route-files value="C:\Users\legion\2024-09-06-19-06-13\osm.passenger.trips.xml"/>
    </input>

    <output>
        <output-file value="C:\Users\legion\2024-09-06-19-06-13\osm.passenger.trips.xml.tmp"/>
        <alternatives-output value="NUL"/>
        <write-trips value="true"/>
    </output>

    <processing>
        <remove-loops value="true"/>
    </processing>

    <time>
        <begin value="0.0"/>
        <end value="3600.0"/>
    </time>

    <report>
        <no-warnings value="true"/>
        <ignore-errors value="true"/>
        <no-step-log value="true"/>
    </report>

</configuration>
-->

<routes xmlns:xsi="http://www.w3.org/2001/XMLSchema-instance" xsi:noNamespaceSchemaLocation="http://sumo.dlr.de/xsd/routes_file.xsd">
    <vType id="veh_passenger" vClass="passenger"/>
    <trip id="veh1" type="veh_passenger" depart="4.27" departLane="best" from="945322275#3" to="-1148119572#8"/>
    <trip id="veh2" type="veh_passenger" depart="8.55" departLane="best" from="-29313248#0" to="28192352#3"/>
    <trip id="veh4" type="veh_passenger" depart="17.09" departLane="best" from="-29313248#0" to="402400378#3"/>
    <trip id="veh5" type="veh_passenger" depart="21.36" departLane="best" from="945322256#2" to="1136607494"/>
    <trip id="veh6" type="veh_passenger" depart="25.64" departLane="best" from="945322256#2" to="-709360979#1"/>
    <trip id="veh7" type="veh_passenger" depart="29.91" departLane="best" from="-1148119572#3" to="-1216451373#0"/>
    <trip id="veh9" type="veh_passenger" depart="38.45" departLane="best" from="945322256#2" to="1216451373#0"/>
    <trip id="veh10" type="veh_passenger" depart="42.73" departLane="best" from="36869877#2" to="962177669#0"/>
    <trip id="veh13" type="veh_passenger" depart="55.54" departLane="best" from="945322275#1" to="402400378#2"/>
    <trip id="veh14" type="veh_passenger" depart="59.82" departLane="best" from="-600582038#1" to="1148119572#2"/>
    <trip id="veh15" type="veh_passenger" depart="64.09" departLane="best" from="-1148119572#0" to="-1136650312#0"/>
    <trip id="veh16" type="veh_passenger" depart="68.36" departLane="best" from="702919616#2" to="1308543779#5"/>
    <trip id="veh18" type="veh_passenger" depart="76.91" departLane="best" departSpeed="max" from="-1308543779#5" to="711052546#1"/>
    <trip id="veh19" type="veh_passenger" depart="81.18" departLane="best" departSpeed="max" from="-1308543779#5" to="136557832"/>
    <trip id="veh21" type="veh_passenger" depart="89.73" departLane="best" from="945322275#2" to="-1148119573#1"/>
    <trip id="veh22" type="veh_passenger" depart="94.00" departLane="best" departSpeed="max" from="-707157542#3" to="-1136650312#1"/>
    <trip id="veh26" type="veh_passenger" depart="111.09" departLane="best" from="962177670" to="28192352#4"/>
    <trip id="veh27" type="veh_passenger" depart="115.36" departLane="best" from="1148119572#8" to="702919616#0"/>
    <trip id="veh28" type="veh_passenger" depart="119.63" departLane="best" departSpeed="max" from="722894415#0" to="136557833"/>
    <trip id="veh31" type="veh_passenger" depart="132.45" departLane="best" departSpeed="max" from="-707157542#3" to="702919616#1"/>
    <trip id="veh32" type="veh_passenger" depart="136.72" departLane="best" from="-1148119573#1" to="136557833"/>
    <trip id="veh34" type="veh_passenger" depart="145.27" departLane="best" departSpeed="max" from="-11007689#1" to="945322275#5"/>
    <trip id="veh37" type="veh_passenger" depart="158.09" departLane="best" departSpeed="max" from="-707157542#3" to="945322275#1"/>
    <trip id="veh38" type="veh_passenger" depart="162.36" departLane="best" from="36869877#2" to="711052546#1"/>
    <trip id="veh40" type="veh_passenger" depart="170.91" departLane="best" from="-1308543779#2" to="29313248#0"/>
    <trip id="veh41" type="veh_passenger" depart="175.18" departLane="best" from="1136650312#0" to="402400378#3"/>
    <trip id="veh42" type="veh_passenger" depart="179.45" departLane="best" from="945322275#1" to="-1148119572#3"/>
    <trip id="veh44" type="veh_passenger" depart="188.00" departLane="best" from="945322275#6" to="402400378#2"/>
    <trip id="veh45" type="veh_passenger" depart="192.27" departLane="best" from="945322256#2" to="-947077275#0"/>
    <trip id="veh46" type="veh_passenger" depart="196.54" departLane="best" from="-1148119572#5" to="136557833"/>
    <trip id="veh47" type="veh_passenger" depart="200.81" departLane="best" from="-1148119572#4" to="-1216451373#1"/>
    <trip id="veh50" type="veh_passenger" depart="213.63" departLane="best" from="-1308543779#4" to="945322275#0"/>
    <trip id="veh52" type="veh_passenger" depart="222.18" departLane="best" from="945322275#0" to="-722894415#0"/>
    <trip id="veh54" type="veh_passenger" depart="230.72" departLane="best" departSpeed="max" from="-707157542#3" to="711085009"/>
    <trip id="veh56" type="veh_passenger" depart="239.27" departLane="best" from="962177669#0" to="402400378#2"/>
    <trip id="veh57" type="veh_passenger" depart="243.54" departLane="best" from="36869877#2" to="711052548#1"/>
    <trip id="veh58" type="veh_passenger" depart="247.81" departLane="best" from="1148119571#0" to="402400378#3"/>
    <trip id="veh60" type="veh_passenger" depart="256.36" departLane="best" departSpeed="max" from="-1308543779#5" to="-947077275#1"/>
    <trip id="veh61" type="veh_passenger" depart="260.63" departLane="best" from="-600582038#3" to="707157542#2"/>
    <trip id="veh64" type="veh_passenger" depart="273.45" departLane="best" from="711085010" to="1148119572#5"/>
    <trip id="veh66" type="veh_passenger" depart="281.99" departLane="best" from="1148119571#1" to="707157542#2"/>
    <trip id="veh67" type="veh_passenger" depart="286.27" departLane="best" from="709360979#1" to="945322275#6"/>
    <trip id="veh71" type="veh_passenger" depart="303.36" departLane="best" from="945322256#5" to="402400378#3"/>
    <trip id="veh72" type="veh_passenger" depart="307.63" departLane="best" from="-1308543779#2" to="-156006452#2"/>
    <trip id="veh73" type="veh_passenger" depart="311.90" departLane="best" from="722894415#1" to="945322275#0"/>
    <trip id="veh75" type="veh_passenger" depart="320.45" departLane="best" departSpeed="max" from="722894415#0" to="945322275#2"/>
    <trip id="veh76" type="veh_passenger" depart="324.72" departLane="best" from="-1308543779#4" to="945322275#5"/>
    <trip id="veh77" type="veh_passenger" depart="328.99" departLane="best" from="1136650312#0" to="945322275#5"/>
    <trip id="veh78" type="veh_passenger" depart="333.27" departLane="best" from="945322256#2" to="945322275#0"/>
    <trip id="veh79" type="veh_passenger" depart="337.54" departLane="best" from="-29313248#1" to="945322256#2"/>
    <trip id="veh80" type="veh_passenger" depart="341.81" departLane="best" from="136557832" to="1148119572#7"/>
    <trip id="veh81" type="veh_passenger" depart="346.08" departLane="best" from="722894415#1" to="1136607494"/>
    <trip id="veh83" type="veh_passenger" depart="354.63" departLane="best" from="962177669#0" to="-722894415#0"/>
    <trip id="veh84" type="veh_passenger" depart="358.90" departLane="best" from="-1148119572#8" to="136557833"/>
    <trip id="veh86" type="veh_passenger" depart="367.45" departLane="best" from="702919616#0" to="28192352#4"/>
    <trip id="veh87" type="veh_passenger" depart="371.72" departLane="best" from="1148119571#5" to="402400378#2"/>
    <trip id="veh89" type="veh_passenger" depart="380.26" departLane="best" from="-11007689#0" to="945322275#5"/>
    <trip id="veh91" type="veh_passenger" depart="388.81" departLane="best" from="1136650312#2" to="1148119572#3"/>
    <trip id="veh92" type="veh_passenger" depart="393.08" departLane="best" from="711052548#1" to="1148119572#5"/>
    <trip id="veh95" type="veh_passenger" depart="405.90" departLane="best" from="-11007689#0" to="1148119572#1"/>
    <trip id="veh96" type="veh_passenger" depart="410.17" departLane="best" from="1216451373#1" to="402400378#3"/>
    <trip id="veh98" type="veh_passenger" depart="418.72" departLane="best" from="945322275#0" to="-1148119572#4"/>
    <trip id="veh99" type="veh_passenger" depart="422.99" departLane="best" from="1148119572#8" to="702919616#0"/>
    <trip id="veh102" type="veh_passenger" depart="435.81" departLane="best" from="-1148119572#7" to="136557833"/>
    <trip id="veh103" type="veh_passenger" depart="440.08" departLane="best" from="36869877#0" to="-1148119571#3"/>
    <trip id="veh106" type="veh_passenger" depart="452.90" departLane="best" from="711052548#1" to="28192352#2"/>
    <trip id="veh108" type="veh_passenger" depart="461.45" departLane="best" departSpeed="max" from="-707157542#3" to="1216159883"/>
    <trip id="veh110" type="veh_passenger" depart="469.99" departLane="best" from="-600582038#3" to="707157542#3"/>
    <trip id="veh111" type="veh_passenger" depart="474.26" departLane="best" from="-1148119572#8" to="-947077275#1"/>
    <trip id="veh112" type="veh_passenger" depart="478.54" departLane="best" from="-1148119573#1" to="945322275#3"/>
    <trip id="veh114" type="veh_passenger" depart="487.08" departLane="best" from="1148119573#0" to="711052548#1"/>
    <trip id="veh115" type="veh_passenger" depart="491.35" departLane="best" from="36869877#2" to="600582038#4"/>
    <trip id="veh116" type="veh_passenger" depart="495.63" departLane="best" from="-1308543779#2" to="-1136650312#2"/>
    <trip id="veh117" type="veh_passenger" depart="499.90" departLane="best" from="1136650312#0" to="707157542#3"/>
    <trip id="veh118" type="veh_passenger" depart="504.17" departLane="best" from="-1148119572#5" to="-709360979#2"/>
    <trip id="veh119" type="veh_passenger" depart="508.44" departLane="best" from="1148119572#2" to="402400378#1"/>
    <trip id="veh122" type="veh_passenger" depart="521.26" departLane="best" from="962177670" to="1308543779#3"/>
    <trip id="veh125" type="veh_passenger" depart="534.08" departLane="best" from="711085008#1" to="1308543779#4"/>
    <trip id="veh126" type="veh_passenger" depart="538.35" departLane="best" from="-1148119572#8" to="-1136650312#1"/>
    <trip id="veh127" type="veh_passenger" depart="542.63" departLane="best" departSpeed="max" from="-11007689#0" to="707157542#2"/>
    <trip id="veh128" type="veh_passenger" depart="546.90" departLane="best" from="711052548#1" to="1148119572#5"/>
    <trip id="veh129" type="veh_passenger" depart="551.17" departLane="best" from="-1148119572#6" to="711085008#0"/>
    <trip id="veh130" type="veh_passenger" depart="555.44" departLane="best" from="1216451373#0" to="1308543779#5"/>
    <trip id="veh132" type="veh_passenger" depart="563.99" departLane="best" from="-1148119572#7" to="-947077275#1"/>
    <trip id="veh133" type="veh_passenger" depart="568.26" departLane="best" departSpeed="max" from="-707157542#3" to="-890573911"/>
    <trip id="veh135" type="veh_passenger" depart="576.81" departLane="best" from="-1308543779#1" to="711052546#1"/>
    <trip id="veh136" type="veh_passenger" depart="581.08" departLane="best" departSpeed="max" from="-707157542#3" to="945322275#0"/>
    <trip id="veh138" type="veh_passenger" depart="589.62" departLane="best" from="945322275#0" to="-722894415#0"/>
    <trip id="veh143" type="veh_passenger" depart="610.99" departLane="best" from="711052546#1" to="1148119572#7"/>
    <trip id="veh145" type="veh_passenger" depart="619.53" departLane="best" from="36869877#1" to="136557833"/>
    <trip id="veh148" type="veh_passenger" depart="632.35" departLane="best" from="36869877#2" to="711064567"/>
    <trip id="veh151" type="veh_passenger" depart="645.17" departLane="best" from="722894415#1" to="-1216451373#1"/>
    <trip id="veh152" type="veh_passenger" depart="649.44" departLane="best" from="36869877#1" to="-1148119571#3"/>
    <trip id="veh153" type="veh_passenger" depart="653.71" departLane="best" from="962177669#0" to="402400378#1"/>
    <trip id="veh155" type="veh_passenger" depart="662.26" departLane="best" from="945322275#2" to="402400378#2"/>
    <trip id="veh159" type="veh_passenger" depart="679.35" departLane="best" from="36869877#0" to="136557833"/>
    <trip id="veh160" type="veh_passenger" depart="683.62" departLane="best" from="-1308543779#3" to="945322275#0"/>
    <trip id="veh161" type="veh_passenger" depart="687.90" departLane="best" from="962177669#1" to="1148119572#7"/>
    <trip id="veh164" type="veh_passenger" depart="700.71" departLane="best" from="-600582038#3" to="1148119572#2"/>
    <trip id="veh165" type="veh_passenger" depart="704.99" departLane="best" from="711052546#0" to="945322275#5"/>
    <trip id="veh166" type="veh_passenger" depart="709.26" departLane="best" departSpeed="max" from="722894415#0" to="702919616#0"/>
    <trip id="veh167" type="veh_passenger" depart="713.53" departLane="best" from="709360979#1" to="945322275#6"/>
    <trip id="veh169" type="veh_passenger" depart="722.08" departLane="best" from="711085008#1" to="402400378#2"/>
    <trip id="veh170" type="veh_passenger" depart="726.35" departLane="best" from="-1148119572#3" to="-947077275#1"/>
    <trip id="veh171" type="veh_passenger" depart="730.62" departLane="best" from="945322256#5" to="402400378#2"/>
    <trip id="veh172" type="veh_passenger" depart="734.89" departLane="best" from="945322275#5" to="-722894415#0"/>
    <trip id="veh174" type="veh_passenger" depart="743.44" departLane="best" from="-1136607494" to="707157542#3"/>
    <trip id="veh175" type="veh_passenger" depart="747.71" departLane="best" from="890573911" to="945322275#6"/>
    <trip id="veh176" type="veh_passenger" depart="751.98" departLane="best" from="136557832" to="1148119573#0"/>
    <trip id="veh177" type="veh_passenger" depart="756.26" departLane="best" from="-1148119572#5" to="28192352#5"/>
    <trip id="veh178" type="veh_passenger" depart="760.53" departLane="best" from="36869877#2" to="136557833"/>
    <trip id="veh179" type="veh_passenger" depart="764.80" departLane="best" from="156006452#2" to="1308543779#5"/>
    <trip id="veh180" type="veh_passenger" depart="769.08" departLane="best" from="-1308543779#2" to="-709360979#1"/>
    <trip id="veh182" type="veh_passenger" depart="777.62" departLane="best" from="711052548#1" to="28192352#4"/>
    <trip id="veh187" type="veh_passenger" depart="798.98" departLane="best" departSpeed="max" from="722894415#0" to="-1148119571#1"/>
    <trip id="veh188" type="veh_passenger" depart="803.26" departLane="best" from="709360979#1" to="945322256#3"/>
    <trip id="veh189" type="veh_passenger" depart="807.53" departLane="best" from="962177669#1" to="28192352#0"/>
    <trip id="veh190" type="veh_passenger" depart="811.80" departLane="best" from="1136650312#1" to="28192352#2"/>
    <trip id="veh191" type="veh_passenger" depart="816.07" departLane="best" from="36869877#1" to="136557833"/>
    <trip id="veh192" type="veh_passenger" depart="820.35" departLane="best" from="1136650312#0" to="707157542#3"/>
    <trip id="veh196" type="veh_passenger" depart="837.44" departLane="best" from="-1308543779#1" to="-156006452#1"/>
    <trip id="veh197" type="veh_passenger" depart="841.71" departLane="best" from="-707157542#2" to="-1136650312#2"/>
    <trip id="veh198" type="veh_passenger" depart="845.98" departLane="best" departSpeed="max" from="-11007689#1" to="-722894415#1"/>
    <trip id="veh199" type="veh_passenger" depart="850.26" departLane="best" from="945322275#4" to="707157542#2"/>
    <trip id="veh200" type="veh_passenger" depart="854.53" departLane="best" departSpeed="max" from="-1308543779#5" to="136557833"/>
    <trip id="veh201" type="veh_passenger" depart="858.80" departLane="best" from="1136650312#1" to="402400378#3"/>
    <trip id="veh204" type="veh_passenger" depart="871.62" departLane="best" from="962177669#1" to="1148119572#4"/>
    <trip id="veh205" type="veh_passenger" depart="875.89" departLane="best" from="702919616#0" to="1308543779#3"/>
    <trip id="veh206" type="veh_passenger" depart="880.16" departLane="best" from="702919616#3" to="1148119572#8"/>
    <trip id="veh209" type="veh_passenger" depart="892.98" departLane="best" from="36869877#2" to="962177669#0"/>
    <trip id="veh210" type="veh_passenger" depart="897.25" departLane="best" from="36869877#1" to="945322275#4"/>
    <trip id="veh212" type="veh_passenger" depart="905.80" departLane="best" from="945322256#2" to="711052548#1"/>
    <trip id="veh213" type="veh_passenger" depart="910.07" departLane="best" from="1136650312#0" to="1308543779#4"/>
    <trip id="veh214" type="veh_passenger" depart="914.34" departLane="best" from="962177669#0" to="-722894415#1"/>
    <trip id="veh216" type="veh_passenger" depart="922.89" departLane="best" from="711085010" to="402400378#3"/>
    <trip id="veh217" type="veh_passenger" depart="927.16" departLane="best" from="-1148119572#8" to="-1136650312#0"/>
    <trip id="veh220" type="veh_passenger" depart="939.98" departLane="best" from="-1148119572#8" to="-1216451373#1"/>
    <trip id="veh222" type="veh_passenger" depart="948.53" departLane="best" from="36869877#2" to="962177669#0"/>
    <trip id="veh224" type="veh_passenger" depart="957.07" departLane="best" departSpeed="max" from="722894415#0" to="-1136650312#1"/>
    <trip id="veh225" type="veh_passenger" depart="961.34" departLane="best" departSpeed="max" from="-1216159883" to="402400378#1"/>
    <trip id="veh227" type="veh_passenger" depart="969.89" departLane="best" from="-1308543779#2" to="945322275#3"/>
    <trip id="veh230" type="veh_passenger" depart="982.71" departLane="best" departSpeed="max" from="-1308543779#5" to="-1148119571#4"/>
    <trip id="veh233" type="veh_passenger" depart="995.53" departLane="best" departSpeed="max" from="722894415#0" to="945322275#1"/>
    <trip id="veh234" type="veh_passenger" depart="999.80" departLane="best" from="36869877#0" to="-156006452#0"/>
    <trip id="veh239" type="veh_passenger" depart="1021.16" departLane="best" from="36869877#1" to="136557833"/>
    <trip id="veh240" type="veh_passenger" depart="1025.43" departLane="best" from="-1148119572#8" to="-1216451373#0"/>
    <trip id="veh241" type="veh_passenger" depart="1029.71" departLane="best" from="-1148119572#5" to="711052548#0"/>
    <trip id="veh242" type="veh_passenger" depart="1033.98" departLane="best" from="945322256#3" to="402400378#1"/>
    <trip id="veh243" type="veh_passenger" depart="1038.25" departLane="best" from="702919616#0" to="1308543779#3"/>
    <trip id="veh245" type="veh_passenger" depart="1046.80" departLane="best" from="1148119572#8" to="945322256#5"/>
    <trip id="veh248" type="veh_passenger" depart="1059.61" departLane="best" departSpeed="max" from="-707157542#3" to="-722894415#0"/>
    <trip id="veh249" type="veh_passenger" depart="1063.89" departLane="best" from="711052546#1" to="1148119572#8"/>
    <trip id="veh250" type="veh_passenger" depart="1068.16" departLane="best" from="945322275#1" to="402400378#2"/>
    <trip id="veh251" type="veh_passenger" depart="1072.43" departLane="best" from="-1148119572#4" to="29313248#0"/>
    <trip id="veh252" type="veh_passenger" depart="1076.71" departLane="best" from="1148119573#0" to="1216451373#1"/>
    <trip id="veh255" type="veh_passenger" depart="1089.52" departLane="best" from="-1308543779#3" to="-1148119571#3"/>
    <trip id="veh256" type="veh_passenger" depart="1093.80" departLane="best" from="711085009" to="1308543779#4"/>
    <trip id="veh258" type="veh_passenger" depart="1102.34" departLane="best" departSpeed="max" from="-11007689#1" to="1148119572#5"/>
    <trip id="veh259" type="veh_passenger" depart="1106.61" departLane="best" from="-707157542#2" to="1216159883"/>
    <trip id="veh260" type="veh_passenger" depart="1110.89" departLane="best" from="711052548#0" to="28192352#1"/>
    <trip id="veh261" type="veh_passenger" depart="1115.16" departLane="best" departSpeed="max" from="-1308543779#5" to="28192352#4"/>
    <trip id="veh262" type="veh_passenger" depart="1119.43" departLane="best" from="-1148119573#1" to="28192352#4"/>
    <trip id="veh263" type="veh_passenger" depart="1123.70" departLane="best" from="945322275#4" to="1308543779#3"/>
    <trip id="veh264" type="veh_passenger" depart="1127.98" departLane="best" from="945322256#3" to="-1136650312#0"/>
    <trip id="veh265" type="veh_passenger" depart="1132.25" departLane="best" from="-1308543779#2" to="-947077275#0"/>
    <trip id="veh266" type="veh_passenger" depart="1136.52" departLane="best" from="702919616#3" to="-722894415#0"/>
    <trip id="veh269" type="veh_passenger" depart="1149.34" departLane="best" from="1136650312#2" to="28192352#3"/>
    <trip id="veh273" type="veh_passenger" depart="1166.43" departLane="best" from="945322256#2" to="702919616#2"/>
    <trip id="veh275" type="veh_passenger" depart="1174.98" departLane="best" from="-1308543779#3" to="-1148119572#1"/>
    <trip id="veh277" type="veh_passenger" depart="1183.52" departLane="best" from="722894415#1" to="136557833"/>
    <trip id="veh278" type="veh_passenger" depart="1187.79" departLane="best" departSpeed="max" from="722894415#0" to="702919616#1"/>
    <trip id="veh279" type="veh_passenger" depart="1192.07" departLane="best" from="711052546#0" to="1148119572#0"/>
    <trip id="veh280" type="veh_passenger" depart="1196.34" departLane="best" from="1136650312#0" to="402400378#3"/>
    <trip id="veh281" type="veh_passenger" depart="1200.61" departLane="best" from="1216451373#1" to="1308543779#3"/>
    <trip id="veh282" type="veh_passenger" depart="1204.88" departLane="best" from="-1148119572#1" to="600582038#1"/>
    <trip id="veh284" type="veh_passenger" depart="1213.43" departLane="best" from="1136650312#2" to="1308543779#5"/>
    <trip id="veh286" type="veh_passenger" depart="1221.98" departLane="best" from="-1148119572#6" to="711085008#0"/>
    <trip id="veh288" type="veh_passenger" depart="1230.52" departLane="best" from="945322256#2" to="-709360979#2"/>
    <trip id="veh289" type="veh_passenger" depart="1234.79" departLane="best" from="-1308543779#2" to="136557833"/>
    <trip id="veh290" type="veh_passenger" depart="1239.07" departLane="best" from="-1308543779#4" to="-1148119572#1"/>
    <trip id="veh292" type="veh_passenger" depart="1247.61" departLane="best" from="945322256#5" to="1308543779#5"/>
    <trip id="veh296" type="veh_passenger" depart="1264.70" departLane="best" from="945322275#2" to="402400378#1"/>
    <trip id="veh297" type="veh_passenger" depart="1268.97" departLane="best" from="1148119572#6" to="945322256#5"/>
    <trip id="veh298" type="veh_passenger" depart="1273.25" departLane="best" from="-1308543779#2" to="-947077275#0"/>
    <trip id="veh299" type="veh_passenger" depart="1277.52" departLane="best" from="1136650312#2" to="28192352#2"/>
    <trip id="veh301" type="veh_passenger" depart="1286.06" departLane="best" from="1148119573#0" to="711085010"/>
    <trip id="veh302" type="veh_passenger" depart="1290.34" departLane="best" from="136557832" to="1308543779#3"/>
    <trip id="veh306" type="veh_passenger" depart="1307.43" departLane="best" from="709360979#2" to="1148119572#8"/>
    <trip id="veh307" type="veh_passenger" depart="1311.70" departLane="best" from="36869877#1" to="28192352#3"/>
    <trip id="veh308" type="veh_passenger" depart="1315.97" departLane="best" from="962177669#1" to="402400378#1"/>
    <trip id="veh310" type="veh_passenger" depart="1324.52" departLane="best" from="-707157542#2" to="-1136650312#0"/>
    <trip id="veh311" type="veh_passenger" depart="1328.79" departLane="best" from="136557832" to="1148119572#3"/>
    <trip id="veh312" type="veh_passenger" depart="1333.06" departLane="best" from="1136650312#1" to="945322275#6"/>
    <trip id="veh313" type="veh_passenger" depart="1337.34" departLane="best" from="36869877#0" to="962177669#1"/>
    <trip id="veh314" type="veh_passenger" depart="1341.61" departLane="best" from="36869877#2" to="-1136650312#2"/>
    <trip id="veh315" type="veh_passenger" depart="1345.88" departLane="best" departSpeed="max" from="-1216159883" to="1308543779#5"/>
    <trip id="veh316" type="veh_passenger" depart="1350.15" departLane="best" from="36869877#0" to="711085010"/>
    <trip id="veh318" type="veh_passenger" depart="1358.70" departLane="best" from="36869877#2" to="1216159883"/>
    <trip id="veh319" type="veh_passenger" depart="1362.97" departLane="best" from="1216451373#0" to="707157542#3"/>
    <trip id="veh320" type="veh_passenger" depart="1367.24" departLane="best" from="945322275#1" to="1308543779#4"/>
    <trip id="veh322" type="veh_passenger" depart="1375.79" departLane="best" departSpeed="max" from="722894415#0" to="-1136650312#2"/>
    <trip id="veh326" type="veh_passenger" depart="1392.88" departLane="best" from="1148119572#0" to="402400378#1"/>
    <trip id="veh327" type="veh_passenger" depart="1397.15" departLane="best" departSpeed="max" from="-707157542#3" to="-1136650312#2"/>
    <trip id="veh328" type="veh_passenger" depart="1401.43" departLane="best" from="-1308543779#4" to="962177670"/>
    <trip id="veh330" type="veh_passenger" depart="1409.97" departLane="best" from="1136650312#1" to="1148119572#2"/>
    <trip id="veh331" type="veh_passenger" depart="1414.24" departLane="best" from="36869877#2" to="702919616#0"/>
    <trip id="veh332" type="veh_passenger" depart="1418.52" departLane="best" from="1136650312#0" to="402400378#1"/>
    <trip id="veh333" type="veh_passenger" depart="1422.79" departLane="best" from="1148119571#1" to="-722894415#1"/>
    <trip id="veh335" type="veh_passenger" depart="1431.33" departLane="best" from="36869877#1" to="711064567"/>
    <trip id="veh336" type="veh_passenger" depart="1435.61" departLane="best" from="136525920" to="707157542#3"/>
    <trip id="veh337" type="veh_passenger" depart="1439.88" departLane="best" departSpeed="max" from="722894415#0" to="702919616#1"/>
    <trip id="veh338" type="veh_passenger" depart="1444.15" departLane="best" from="-1308543779#3" to="-709360979#2"/>
    <trip id="veh339" type="veh_passenger" depart="1448.42" departLane="best" from="1136650312#1" to="945322275#6"/>
    <trip id="veh345" type="veh_passenger" depart="1474.06" departLane="best" from="702919616#2" to="402400378#2"/>
    <trip id="veh346" type="veh_passenger" depart="1478.33" departLane="best" from="1148119572#8" to="702919616#1"/>
    <trip id="veh348" type="veh_passenger" depart="1486.88" departLane="best" from="711052546#0" to="1148119572#4"/>
    <trip id="veh351" type="veh_passenger" depart="1499.70" departLane="best" from="1148119571#1" to="402400378#1"/>
    <trip id="veh352" type="veh_passenger" depart="1503.97" departLane="best" departSpeed="max" from="-707157542#3" to="-1136650312#1"/>
    <trip id="veh355" type="veh_passenger" depart="1516.79" departLane="best" departSpeed="max" from="-1308543779#5" to="1216159883"/>
    <trip id="veh356" type="veh_passenger" depart="1521.06" departLane="best" from="711085009" to="28192352#0"/>
    <trip id="veh357" type="veh_passenger" depart="1525.33" departLane="best" from="36869877#0" to="28192352#1"/>
    <trip id="veh358" type="veh_passenger" depart="1529.61" departLane="best" from="947077275#0" to="28192352#3"/>
    <trip id="veh360" type="veh_passenger" depart="1538.15" departLane="best" from="36869877#2" to="945322256#5"/>
    <trip id="veh363" type="veh_passenger" depart="1550.97" departLane="best" from="722894415#1" to="-1216451373#1"/>
    <trip id="veh366" type="veh_passenger" depart="1563.79" departLane="best" departSpeed="max" from="-1308543779#5" to="962177669#1"/>
    <trip id="veh367" type="veh_passenger" depart="1568.06" departLane="best" from="711085008#0" to="1148119572#5"/>
    <trip id="veh368" type="veh_passenger" depart="1572.33" departLane="best" from="1136650312#0" to="945322256#3"/>
    <trip id="veh370" type="veh_passenger" depart="1580.88" departLane="best" from="962177669#1" to="402400378#3"/>
    <trip id="veh371" type="veh_passenger" depart="1585.15" departLane="best" departSpeed="max" from="722894415#0" to="711085008#0"/>
    <trip id="veh374" type="veh_passenger" depart="1597.97" departLane="best" from="947077275#0" to="1308543779#3"/>
    <trip id="veh375" type="veh_passenger" depart="1602.24" departLane="best" departSpeed="max" from="-11007689#1" to="1148119573#0"/>
    <trip id="veh376" type="veh_passenger" depart="1606.51" departLane="best" from="-1148119572#6" to="711085008#0"/>
    <trip id="veh377" type="veh_passenger" depart="1610.79" departLane="best" departSpeed="max" from="-1308543779#5" to="945322275#4"/>
    <trip id="veh378" type="veh_passenger" depart="1615.06" departLane="best" from="1136650312#0" to="1308543779#4"/>