<?xml version="1.0" encoding="UTF-8"?>

<!-- generated on 2024-08-23 15:22:30.093688 by osmWebWizard.py v1_20_0+0002-343658e7c64
<configuration>
    <net-file value="C:\Users\ADMIN\Sumo\2024-08-23-15-21-40\osm.net.xml.gz"/>
    <output-trip-file value="C:\Users\ADMIN\Sumo\2024-08-23-15-21-40\osm.passenger.trips.xml"/>
    <route-file value="C:\Users\ADMIN\Sumo\2024-08-23-15-21-40\osm.passenger.rou.xml"/>
    <prefix value="veh"/>
    <trip-attributes value="departLane=&quot;best&quot;"/>
    <fringe-start-attributes value="departSpeed=&quot;max&quot;"/>
    <vehicle-class value="passenger"/>
    <lanes value="True"/>
    <fringe-factor value="5"/>
    <allow-fringe.min-length value="1000.0"/>
    <via-edge-types value="highway.motorway,highway.motorway_link,highway.trunk_link,highway.primary_link,highway.secondary_link,highway.tertiary_link"/>
    <min-distance value="300.0"/>
    <min-distance.fringe value="10.0"/>
    <remove-loops value="True"/>
    <validate value="True"/>
    <insertion-density value="80.0"/>
</configuration>
-->

<!-- generated on 2024-08-23 15:22:27 by Eclipse SUMO duarouter Version 1.20.0
<configuration xmlns:xsi="http://www.w3.org/2001/XMLSchema-instance" xsi:noNamespaceSchemaLocation="http://sumo.dlr.de/xsd/duarouterConfiguration.xsd">

    <input>
        <net-file value="C:\Users\ADMIN\Sumo\2024-08-23-15-21-40\osm.net.xml.gz"/>
        <route-files value="C:\Users\ADMIN\Sumo\2024-08-23-15-21-40\osm.passenger.trips.xml"/>
    </input>

    <output>
        <output-file value="C:\Users\ADMIN\Sumo\2024-08-23-15-21-40\osm.passenger.trips.xml.tmp"/>
        <alternatives-output value="NUL"/>
        <write-trips value="true"/>
    </output>

    <processing>
        <remove-loops value="true"/>
    </processing>

    <time>
        <begin value="0.0"/>
        <end value="3600.0"/>
    </time>

    <report>
        <no-warnings value="true"/>
        <ignore-errors value="true"/>
        <no-step-log value="true"/>
    </report>

</configuration>
-->

<routes xmlns:xsi="http://www.w3.org/2001/XMLSchema-instance" xsi:noNamespaceSchemaLocation="http://sumo.dlr.de/xsd/routes_file.xsd">
    <vType id="veh_passenger" vClass="passenger"/>
    <trip id="veh0" type="veh_passenger" depart="0.00" departLane="best" from="598686809#1" to="-1231582014#1"/>
    <trip id="veh1" type="veh_passenger" depart="0.74" departLane="best" from="704606545#0" to="702933227"/>
    <trip id="veh2" type="veh_passenger" depart="1.48" departLane="best" from="848915397#1" to="-37731777#5"/>
    <trip id="veh5" type="veh_passenger" depart="3.70" departLane="best" from="708964306#1" to="-1033758959"/>
    <trip id="veh6" type="veh_passenger" depart="4.45" departLane="best" departSpeed="max" from="1033758959" to="597619416"/>
    <trip id="veh7" type="veh_passenger" depart="5.19" departLane="best" from="946030639#0" to="1112836174#1"/>
    <trip id="veh8" type="veh_passenger" depart="5.93" departLane="best" from="37731777#5" to="397992225#2"/>
    <trip id="veh10" type="veh_passenger" depart="7.41" departLane="best" from="708920953#1" to="705238975#1"/>
    <trip id="veh11" type="veh_passenger" depart="8.15" departLane="best" from="1119786562#0" to="50536193#14"/>
    <trip id="veh12" type="veh_passenger" depart="8.89" departLane="best" from="711379743#3" to="598767884#3"/>
    <trip id="veh13" type="veh_passenger" depart="9.63" departLane="best" from="838419185" to="597550117#1"/>
    <trip id="veh14" type="veh_passenger" depart="10.37" departLane="best" departSpeed="max" from="684504394" to="-136258948"/>
    <trip id="veh15" type="veh_passenger" depart="11.11" departLane="best" from="-38107924#2" to="-889984969"/>
    <trip id="veh16" type="veh_passenger" depart="11.86" departLane="best" from="598686802#1" to="1185723931#1"/>
    <trip id="veh17" type="veh_passenger" depart="12.60" departLane="best" from="-598685155#1" to="-1231582014#2"/>
    <trip id="veh19" type="veh_passenger" depart="14.08" departLane="best" from="813363002#0" to="708920949"/>
    <trip id="veh21" type="veh_passenger" depart="15.56" departLane="best" from="-675212243#0" to="946030629#1"/>
    <trip id="veh22" type="veh_passenger" depart="16.30" departLane="best" from="838425491#2" to="1040701625"/>
    <trip id="veh23" type="veh_passenger" depart="17.04" departLane="best" departSpeed="max" from="-763602935" to="-708920951#0"/>
    <trip id="veh25" type="veh_passenger" depart="18.52" departLane="best" from="50536193#3" to="889984929#4"/>
    <trip id="veh27" type="veh_passenger" depart="20.01" departLane="best" from="965574223" to="38107924#1"/>
    <trip id="veh28" type="veh_passenger" depart="20.75" departLane="best" from="37731777#1" to="-136258948"/>
    <trip id="veh30" type="veh_passenger" depart="22.23" departLane="best" from="708607650#0" to="163843397#0"/>
    <trip id="veh32" type="veh_passenger" depart="23.71" departLane="best" from="962177672" to="399449409#3"/>
    <trip id="veh33" type="veh_passenger" depart="24.45" departLane="best" from="952211060#1" to="838425491#0"/>
    <trip id="veh35" type="veh_passenger" depart="25.93" departLane="best" from="613324910#7" to="399835468#3"/>
    <trip id="veh36" type="veh_passenger" depart="26.67" departLane="best" departSpeed="max" from="-763602935" to="601912140#0"/>
    <trip id="veh37" type="veh_passenger" depart="27.42" departLane="best" from="397993967#1" to="220307076#0"/>
    <trip id="veh39" type="veh_passenger" depart="28.90" departLane="best" from="838425491#2" to="889984928#0"/>
    <trip id="veh40" type="veh_passenger" depart="29.64" departLane="best" from="37370975#2" to="-598686809#1"/>
    <trip id="veh41" type="veh_passenger" depart="30.38" departLane="best" departSpeed="max" from="889984938" to="838425491#4"/>
    <trip id="veh42" type="veh_passenger" depart="31.12" departLane="best" departSpeed="max" from="-889984993" to="-601529284#2"/>
    <trip id="veh43" type="veh_passenger" depart="31.86" departLane="best" from="705782098#1" to="399835468#5"/>
    <trip id="veh44" type="veh_passenger" depart="32.60" departLane="best" from="-1023619581#1" to="1077390706#0"/>
    <trip id="veh46" type="veh_passenger" depart="34.08" departLane="best" from="838425491#3" to="764842478"/>
    <trip id="veh47" type="veh_passenger" depart="34.83" departLane="best" from="945322260#1" to="28924706#6"/>
    <trip id="veh48" type="veh_passenger" depart="35.57" departLane="best" from="838425491#3" to="946030629#4"/>
    <trip id="veh49" type="veh_passenger" depart="36.31" departLane="best" from="-374515771#0" to="37371055#0"/>
    <trip id="veh50" type="veh_passenger" depart="37.05" departLane="best" departSpeed="max" from="-28924715#3" to="708533143#10"/>
    <trip id="veh51" type="veh_passenger" depart="37.79" departLane="best" from="705794058#0" to="50536193#1"/>
    <trip id="veh52" type="veh_passenger" depart="38.53" departLane="best" departSpeed="max" from="36084921#0" to="-50536193#11"/>
    <trip id="veh53" type="veh_passenger" depart="39.27" departLane="best" departSpeed="max" from="-763602935" to="838425491#4"/>
    <trip id="veh55" type="veh_passenger" depart="40.75" departLane="best" from="-397992225#5" to="705238975#1"/>
    <trip id="veh56" type="veh_passenger" depart="41.49" departLane="best" departSpeed="max" from="-599191522#1" to="-1033758958"/>
    <trip id="veh58" type="veh_passenger" depart="42.98" departLane="best" from="136556857#0" to="397992225#6"/>
    <trip id="veh60" type="veh_passenger" depart="44.46" departLane="best" from="1031913855" to="598675460"/>
    <trip id="veh63" type="veh_passenger" depart="46.68" departLane="best" departSpeed="max" from="-705219055" to="889984968"/>
    <trip id="veh64" type="veh_passenger" depart="47.42" departLane="best" from="838419180#1" to="-369969171#6"/>
    <trip id="veh65" type="veh_passenger" depart="48.16" departLane="best" from="708533143#11" to="693286036#5"/>
    <trip id="veh66" type="veh_passenger" depart="48.90" departLane="best" from="684343746" to="50536193#3"/>
    <trip id="veh67" type="veh_passenger" depart="49.64" departLane="best" from="29313247#3" to="708964308"/>
    <trip id="veh68" type="veh_passenger" depart="50.39" departLane="best" from="708920953#1" to="-598767884#3"/>
    <trip id="veh71" type="veh_passenger" depart="52.61" departLane="best" from="704595022" to="702919609#0"/>
    <trip id="veh72" type="veh_passenger" depart="53.35" departLane="best" from="1231582014#2" to="1112836174#3"/>
    <trip id="veh73" type="veh_passenger" depart="54.09" departLane="best" from="838419185" to="-708920951#0"/>
    <trip id="veh74" type="veh_passenger" depart="54.83" departLane="best" from="-598767884#0" to="28924715#3"/>
    <trip id="veh75" type="veh_passenger" depart="55.57" departLane="best" from="1262815037#1" to="-889984970"/>
    <trip id="veh76" type="veh_passenger" depart="56.31" departLane="best" departSpeed="max" from="-763602931" to="944894013#0"/>
    <trip id="veh79" type="veh_passenger" depart="58.54" departLane="best" from="965574225" to="-764859227"/>
    <trip id="veh80" type="veh_passenger" depart="59.28" departLane="best" from="947077277#1" to="944894013#3"/>
    <trip id="veh81" type="veh_passenger" depart="60.02" departLane="best" departSpeed="max" from="838419179" to="-598685154#1"/>
    <trip id="veh82" type="veh_passenger" depart="60.76" departLane="best" from="37370971#0" to="-684283623#0"/>
    <trip id="veh83" type="veh_passenger" depart="61.50" departLane="best" from="1231582014#0" to="-28924711#0"/>
    <trip id="veh84" type="veh_passenger" depart="62.24" departLane="best" from="1119786562#0" to="957062224#1"/>
    <trip id="veh85" type="veh_passenger" depart="62.98" departLane="best" departSpeed="max" from="-763602935" to="708964308"/>
    <trip id="veh86" type="veh_passenger" depart="63.72" departLane="best" from="220307072#0" to="163843397#0"/>
    <trip id="veh87" type="veh_passenger" depart="64.46" departLane="best" from="946030639#0" to="962177672"/>
    <trip id="veh88" type="veh_passenger" depart="65.20" departLane="best" from="-399451682#1" to="704641291#4"/>
    <trip id="veh89" type="veh_passenger" depart="65.95" departLane="best" from="-597619417" to="-953227384#1"/>
    <trip id="veh90" type="veh_passenger" depart="66.69" departLane="best" from="947077277#1" to="597555267#1"/>
    <trip id="veh91" type="veh_passenger" depart="67.43" departLane="best" departSpeed="max" from="25953552#2" to="597619418"/>
    <trip id="veh92" type="veh_passenger" depart="68.17" departLane="best" from="1262815037#1" to="838425490#0"/>
    <trip id="veh94" type="veh_passenger" depart="69.65" departLane="best" from="369969171#6" to="598767882#1"/>
    <trip id="veh96" type="veh_passenger" depart="71.13" departLane="best" from="-706455003#0" to="-472432750"/>
    <trip id="veh97" type="veh_passenger" depart="71.87" departLane="best" from="848915397#0" to="-708920951#0"/>
    <trip id="veh98" type="veh_passenger" depart="72.61" departLane="best" from="593638911#0" to="598767882#1"/>
    <trip id="veh99" type="veh_passenger" depart="73.36" departLane="best" from="37731777#0" to="945322259#5"/>
    <trip id="veh100" type="veh_passenger" depart="74.10" departLane="best" from="601529284#0" to="704641291#4"/>
    <trip id="veh101" type="veh_passenger" depart="74.84" departLane="best" from="-708533143#2" to="1262814304#5"/>
    <trip id="veh103" type="veh_passenger" depart="76.32" departLane="best" from="29313247#2" to="369969171#3"/>
    <trip id="veh104" type="veh_passenger" depart="77.06" departLane="best" from="965574223" to="962177672"/>
    <trip id="veh105" type="veh_passenger" depart="77.80" departLane="best" from="29313247#3" to="-684283612#0"/>
    <trip id="veh106" type="veh_passenger" depart="78.54" departLane="best" departSpeed="max" from="-763602935" to="945322259#2"/>
    <trip id="veh108" type="veh_passenger" depart="80.02" departLane="best" from="-763602933#0" to="704626468#0"/>
    <trip id="veh110" type="veh_passenger" depart="81.51" departLane="best" from="601529284#0" to="-946030627#2"/>
    <trip id="veh111" type="veh_passenger" depart="82.25" departLane="best" from="-50536193#3" to="-399451682#0"/>
    <trip id="veh112" type="veh_passenger" depart="82.99" departLane="best" from="-397992225#4" to="50536193#3"/>
    <trip id="veh114" type="veh_passenger" depart="84.47" departLane="best" from="704595016" to="-675212141#2"/>
    <trip id="veh115" type="veh_passenger" depart="85.21" departLane="best" from="-598686800#3" to="889984928#1"/>
    <trip id="veh116" type="veh_passenger" depart="85.95" departLane="best" from="37370971#1" to="889984967"/>
    <trip id="veh117" type="veh_passenger" depart="86.69" departLane="best" from="813363002#1" to="38107924#3"/>
    <trip id="veh119" type="veh_passenger" depart="88.17" departLane="best" from="1033758958" to="708607650#3"/>
    <trip id="veh120" type="veh_passenger" depart="88.92" departLane="best" from="598686806#1" to="-838425492#5"/>
    <trip id="veh121" type="veh_passenger" depart="89.66" departLane="best" from="704626468#1" to="-50536193#14"/>
    <trip id="veh123" type="veh_passenger" depart="91.14" departLane="best" from="-36730546#0" to="848915397#5"/>
    <trip id="veh124" type="veh_passenger" depart="91.88" departLane="best" from="875229048" to="-472838714#1"/>
    <trip id="veh125" type="veh_passenger" depart="92.62" departLane="best" from="764127634#1" to="597619416"/>
    <trip id="veh126" type="veh_passenger" depart="93.36" departLane="best" from="593642481#1" to="50536193#0"/>
    <trip id="veh127" type="veh_passenger" depart="94.10" departLane="best" from="-945322260#3" to="-889984932"/>
    <trip id="veh128" type="veh_passenger" depart="94.84" departLane="best" from="708607650#4" to="838425491#0"/>
    <trip id="veh129" type="veh_passenger" depart="95.58" departLane="best" from="875229047#0" to="-683882970#0"/>
    <trip id="veh130" type="veh_passenger" depart="96.32" departLane="best" departSpeed="max" from="-763602931" to="-397993967#0"/>
    <trip id="veh131" type="veh_passenger" depart="97.07" departLane="best" from="706455003#0" to="848915397#5"/>
    <trip id="veh132" type="veh_passenger" depart="97.81" departLane="best" from="-597619416" to="944894014#2"/>
    <trip id="veh133" type="veh_passenger" depart="98.55" departLane="best" from="838425490#0" to="953297055#1"/>
    <trip id="veh135" type="veh_passenger" depart="100.03" departLane="best" departSpeed="max" from="-1213551136" to="705782098#1"/>
    <trip id="veh136" type="veh_passenger" depart="100.77" departLane="best" from="-1023619581#2" to="944894014#2"/>
    <trip id="veh137" type="veh_passenger" depart="101.51" departLane="best" from="708920950#1" to="838425491#1"/>
    <trip id="veh138" type="veh_passenger" depart="102.25" departLane="best" from="708964308" to="889984929#5"/>
    <trip id="veh139" type="veh_passenger" depart="102.99" departLane="best" from="708533143#5" to="-397993967#4"/>
    <trip id="veh140" type="veh_passenger" depart="103.73" departLane="best" departSpeed="max" from="-702933227" to="763602933#0"/>
    <trip id="veh141" type="veh_passenger" depart="104.48" departLane="best" from="708607650#3" to="693286036#0"/>
    <trip id="veh142" type="veh_passenger" depart="105.22" departLane="best" departSpeed="max" from="-1213551136" to="-598767887#2"/>
    <trip id="veh143" type="veh_passenger" depart="105.96" departLane="best" departSpeed="max" from="-953330595" to="838425491#1"/>
    <trip id="veh144" type="veh_passenger" depart="106.70" departLane="best" from="947077277#0" to="-889984976"/>
    <trip id="veh145" type="veh_passenger" depart="107.44" departLane="best" from="-598767865#0" to="1262814761"/>
    <trip id="veh146" type="veh_passenger" depart="108.18" departLane="best" from="-954126480" to="399835468#2"/>
    <trip id="veh147" type="veh_passenger" depart="108.92" departLane="best" from="952211060#0" to="-598686809#1"/>
    <trip id="veh148" type="veh_passenger" depart="109.66" departLane="best" from="946030659" to="889984929#2"/>
    <trip id="veh149" type="veh_passenger" depart="110.40" departLane="best" from="704595022" to="1040701625"/>
    <trip id="veh150" type="veh_passenger" depart="111.14" departLane="best" from="597550109#0" to="38107924#4"/>
    <trip id="veh151" type="veh_passenger" depart="111.88" departLane="best" departSpeed="max" from="1119786563" to="597550117#1"/>
    <trip id="veh152" type="veh_passenger" depart="112.63" departLane="best" departSpeed="max" from="-763602932#3" to="704626470#3"/>
    <trip id="veh153" type="veh_passenger" depart="113.37" departLane="best" from="-1023619581#3" to="944894013#2"/>
    <trip id="veh154" type="veh_passenger" depart="114.11" departLane="best" from="-397992225#4" to="704641291#4"/>
    <trip id="veh155" type="veh_passenger" depart="114.85" departLane="best" from="704626468#1" to="693489635#1"/>
    <trip id="veh157" type="veh_passenger" depart="116.33" departLane="best" from="946030639#3" to="838419180#1"/>
    <trip id="veh160" type="veh_passenger" depart="118.55" departLane="best" from="1231582014#2" to="-946030639#1"/>
    <trip id="veh161" type="veh_passenger" depart="119.29" departLane="best" from="-472838714#3" to="163843395"/>
    <trip id="veh162" type="veh_passenger" depart="120.04" departLane="best" from="944894014#2" to="702933227"/>
    <trip id="veh163" type="veh_passenger" depart="120.78" departLane="best" from="875229047#1" to="598767882#2"/>
    <trip id="veh164" type="veh_passenger" depart="121.52" departLane="best" departSpeed="max" from="-889985038" to="-477390127#4"/>
    <trip id="veh165" type="veh_passenger" depart="122.26" departLane="best" from="-1023619581#1" to="-945322259#1"/>
    <trip id="veh167" type="veh_passenger" depart="123.74" departLane="best" from="-598767891#0" to="37370971#1"/>
    <trip id="veh168" type="veh_passenger" depart="124.48" departLane="best" from="-156006452#1" to="-684283623#0"/>
    <trip id="veh169" type="veh_passenger" depart="125.22" departLane="best" from="29313247#5" to="889984961"/>
    <trip id="veh170" type="veh_passenger" depart="125.96" departLane="best" from="708607650#3" to="598686799#0"/>
    <trip id="veh171" type="veh_passenger" depart="126.70" departLane="best" from="374515769#2" to="397992225#3"/>
    <trip id="veh172" type="veh_passenger" depart="127.45" departLane="best" from="-598686800#1" to="1112836174#0"/>
    <trip id="veh174" type="veh_passenger" depart="128.93" departLane="best" from="613324910#0" to="-684504394"/>
    <trip id="veh175" type="veh_passenger" depart="129.67" departLane="best" from="-598788857#1" to="-1231582014#0"/>
    <trip id="veh176" type="veh_passenger" depart="130.41" departLane="best" from="708920952" to="37370975#0"/>
    <trip id="veh177" type="veh_passenger" depart="131.15" departLane="best" departSpeed="max" from="838419179" to="-374515768#0"/>
    <trip id="veh179" type="veh_passenger" depart="132.63" departLane="best" from="-598767887#1" to="704606544#1"/>
    <trip id="veh180" type="veh_passenger" depart="133.37" departLane="best" from="-598767891#3" to="-1033758959"/>
    <trip id="veh182" type="veh_passenger" depart="134.85" departLane="best" from="-397992225#3" to="163843397#1"/>
    <trip id="veh183" type="veh_passenger" depart="135.60" departLane="best" departSpeed="max" from="-598756379" to="947077277#0"/>
    <trip id="veh184" type="veh_passenger" depart="136.34" departLane="best" departSpeed="max" from="-709289372#1" to="838419180#1"/>
    <trip id="veh185" type="veh_passenger" depart="137.08" departLane="best" from="220307072#2" to="711379743#1"/>
    <trip id="veh186" type="veh_passenger" depart="137.82" departLane="best" from="593638911#2" to="946030658#0"/>
    <trip id="veh189" type="veh_passenger" depart="140.04" departLane="best" from="711379743#3" to="-477390127#4"/>
    <trip id="veh190" type="veh_passenger" depart="140.78" departLane="best" from="848915397#5" to="705794058#1"/>
    <trip id="veh191" type="veh_passenger" depart="141.52" departLane="best" departSpeed="max" from="36084921#0" to="782027542#5"/>
    <trip id="veh192" type="veh_passenger" depart="142.26" departLane="best" departSpeed="max" from="-709289372#1" to="-601529284#1"/>
    <trip id="veh193" type="veh_passenger" depart="143.01" departLane="best" departSpeed="max" from="598685154#0" to="889984964"/>
    <trip id="veh194" type="veh_passenger" depart="143.75" departLane="best" from="-369969171#2" to="-897406810#1"/>
    <trip id="veh195" type="veh_passenger" depart="144.49" departLane="best" from="764127634#1" to="1075137416"/>
    <trip id="veh196" type="veh_passenger" depart="145.23" departLane="best" from="-397992225#6" to="546999873#3"/>
    <trip id="veh197" type="veh_passenger" depart="145.97" departLane="best" from="-705238975#1" to="704595023#1"/>
    <trip id="veh200" type="veh_passenger" depart="148.19" departLane="best" from="1262814762" to="889984967"/>
    <trip id="veh201" type="veh_passenger" depart="148.93" departLane="best" from="50536193#2" to="704606544#0"/>
    <trip id="veh202" type="veh_passenger" depart="149.67" departLane="best" from="838419180#0" to="708533143#9"/>
    <trip id="veh203" type="veh_passenger" depart="150.41" departLane="best" from="1119786562#0" to="-1033758959"/>
    <trip id="veh204" type="veh_passenger" depart="151.16" departLane="best" departSpeed="max" from="1077390705#0" to="705794060#0"/>
    <trip id="veh208" type="veh_passenger" depart="154.12" departLane="best" from="1031913854" to="702933227"/>
    <trip id="veh209" type="veh_passenger" depart="154.86" departLane="best" from="28924706#6" to="50536193#0"/>
    <trip id="veh210" type="veh_passenger" depart="155.60" departLane="best" from="1112836174#1" to="-593638911#3"/>
    <trip id="veh211" type="veh_passenger" depart="156.34" departLane="best" from="1231582014#0" to="601912140#1"/>
    <trip id="veh212" type="veh_passenger" depart="157.08" departLane="best" from="-50536193#5" to="369969171#8"/>
    <trip id="veh213" type="veh_passenger" depart="157.82" departLane="best" from="136176013#1" to="-1231582014#2"/>
    <trip id="veh214" type="veh_passenger" depart="158.57" departLane="best" from="675212243#2" to="11007689#0"/>
    <trip id="veh215" type="veh_passenger" depart="159.31" departLane="best" from="705782098#1" to="-1231582014#2"/>
    <trip id="veh217" type="veh_passenger" depart="160.79" departLane="best" from="965574225" to="1119786561#1"/>
    <trip id="veh218" type="veh_passenger" depart="161.53" departLane="best" from="598767884#3" to="708964306#1"/>
    <trip id="veh219" type="veh_passenger" depart="162.27" departLane="best" from="598767887#0" to="705794060#1"/>
    <trip id="veh220" type="veh_passenger" depart="163.01" departLane="best" from="946030627#3" to="-601529284#0"/>
    <trip id="veh221" type="veh_passenger" depart="163.75" departLane="best" from="-472838714#0" to="693286037"/>
    <trip id="veh223" type="veh_passenger" depart="165.23" departLane="best" departSpeed="max" from="684504393" to="708576779#0"/>
    <trip id="veh225" type="veh_passenger" depart="166.72" departLane="best" from="711379742#1" to="952211060#1"/>
    <trip id="veh226" type="veh_passenger" depart="167.46" departLane="best" from="-397992225#6" to="-1231582014#2"/>
    <trip id="veh227" type="veh_passenger" depart="168.20" departLane="best" from="-946030628" to="702933227"/>
    <trip id="veh228" type="veh_passenger" depart="168.94" departLane="best" from="946030639#1" to="1262814304#6"/>
    <trip id="veh229" type="veh_passenger" depart="169.68" departLane="best" from="702927015" to="-374515769#0"/>
    <trip id="veh230" type="veh_passenger" depart="170.42" departLane="best" from="-38107924#4" to="708607650#4"/>
    <trip id="veh231" type="veh_passenger" depart="171.16" departLane="best" departSpeed="max" from="838419179" to="598686807#1"/>
    <trip id="veh233" type="veh_passenger" depart="172.64" departLane="best" from="-708521402#1" to="1112836176#1"/>
    <trip id="veh235" type="veh_passenger" depart="174.13" departLane="best" from="37371054" to="1112836176#0"/>
    <trip id="veh236" type="veh_passenger" depart="174.87" departLane="best" departSpeed="max" from="838419179" to="763602934"/>
    <trip id="veh237" type="veh_passenger" depart="175.61" departLane="best" from="-693286036#2" to="220307076#0"/>
    <trip id="veh238" type="veh_passenger" depart="176.35" departLane="best" from="704606544#1" to="952211060#2"/>
    <trip id="veh239" type="veh_passenger" depart="177.09" departLane="best" departSpeed="max" from="-763602936" to="711379743#3"/>
    <trip id="veh241" type="veh_passenger" depart="178.57" departLane="best" departSpeed="max" from="-763602936" to="838419185"/>
    <trip id="veh242" type="veh_passenger" depart="179.31" departLane="best" from="711379743#3" to="-37731777#4"/>
    <trip id="veh243" type="veh_passenger" depart="180.05" departLane="best" from="838425491#4" to="-708533143#8"/>
    <trip id="veh244" type="veh_passenger" depart="180.79" departLane="best" from="-28924706#2" to="598767865#1"/>
    <trip id="veh245" type="veh_passenger" depart="181.54" departLane="best" from="1119786562#0" to="1262814304#11"/>
    <trip id="veh247" type="veh_passenger" depart="183.02" departLane="best" from="675212243#2" to="711379742#1"/>
    <trip id="veh249" type="veh_passenger" depart="184.50" departLane="best" departSpeed="max" from="684504393" to="-889984967"/>
    <trip id="veh251" type="veh_passenger" depart="185.98" departLane="best" from="-374515771#0" to="704641291#4"/>
    <trip id="veh252" type="veh_passenger" depart="186.72" departLane="best" from="37370971#1" to="706507802"/>
    <trip id="veh254" type="veh_passenger" depart="188.20" departLane="best" from="37370971#2" to="711052546"/>
    <trip id="veh256" type="veh_passenger" depart="189.69" departLane="best" departSpeed="max" from="684283612#0" to="1023619581#3"/>
    <trip id="veh257" type="veh_passenger" depart="190.43" departLane="best" from="50536193#11" to="37370973#2"/>
    <trip id="veh258" type="veh_passenger" depart="191.17" departLane="best" from="38095070" to="163843397#1"/>
    <trip id="veh259" type="veh_passenger" depart="191.91" departLane="best" departSpeed="max" from="684504394" to="-889984938"/>
    <trip id="veh260" type="veh_passenger" depart="192.65" departLane="best" departSpeed="max" from="-763602931" to="-472838714#0"/>
    <trip id="veh261" type="veh_passenger" depart="193.39" departLane="best" from="-598767885#0" to="-472432750"/>
    <trip id="veh262" type="veh_passenger" depart="194.13" departLane="best" from="-397992225#1" to="-708533143#3"/>
    <trip id="veh263" type="veh_passenger" depart="194.87" departLane="best" from="953227384#3" to="399449409#1"/>
    <trip id="veh264" type="veh_passenger" depart="195.61" departLane="best" from="-889984929#2" to="397992225#8"/>
    <trip id="veh265" type="veh_passenger" depart="196.35" departLane="best" from="598767887#0" to="693286036#0"/>
    <trip id="veh266" type="veh_passenger" depart="197.10" departLane="best" from="-598767865#0" to="-11007689#5"/>
    <trip id="veh267" type="veh_passenger" depart="197.84" departLane="best" from="-38107924#5" to="-889984964"/>
    <trip id="veh268" type="veh_passenger" depart="198.58" departLane="best" from="952211062" to="50536193#3"/>
    <trip id="veh269" type="veh_passenger" depart="199.32" departLane="best" departSpeed="max" from="684504391" to="-477390127#3"/>
    <trip id="veh270" type="veh_passenger" depart="200.06" departLane="best" from="838425490#2" to="374515769#1"/>
    <trip id="veh271" type="veh_passenger" depart="200.80" departLane="best" from="838425491#0" to="597550109#2"/>
    <trip id="veh272" type="veh_passenger" depart="201.54" departLane="best" from="28924715#1" to="28924706#0"/>
    <trip id="veh273" type="veh_passenger" depart="202.28" departLane="best" departSpeed="max" from="-598767871" to="-220307070#2"/>
    <trip id="veh274" type="veh_passenger" depart="203.02" departLane="best" from="944894014#2" to="37370975#2"/>
    <trip id="veh275" type="veh_passenger" depart="203.76" departLane="best" from="711379743#0" to="1262814762"/>
    <trip id="veh277" type="veh_passenger" depart="205.25" departLane="best" from="-220307070#1" to="-597136847#0"/>
    <trip id="veh278" type="veh_passenger" depart="205.99" departLane="best" from="465069896#1" to="961713523#2"/>
    <trip id="veh279" type="veh_passenger" depart="206.73" departLane="best" from="962177671#1" to="-472432750"/>
    <trip id="veh280" type="veh_passenger" depart="207.47" departLane="best" from="705782098#2" to="598767864"/>
    <trip id="veh281" type="veh_passenger" depart="208.21" departLane="best" from="-708576779#0" to="-684504394"/>
    <trip id="veh282" type="veh_passenger" depart="208.95" departLane="best" from="37731777#0" to="28924715#3"/>
    <trip id="veh284" type="veh_passenger" depart="210.43" departLane="best" from="961664404" to="1023619581#2"/>
    <trip id="veh285" type="veh_passenger" depart="211.17" departLane="best" from="597619424" to="598767865#1"/>
    <trip id="veh286" type="veh_passenger" depart="211.91" departLane="best" from="704626468#0" to="-946030639#0"/>
    <trip id="veh287" type="veh_passenger" depart="212.66" departLane="best" from="601529284#2" to="-684283612#0"/>
    <trip id="veh288" type="veh_passenger" depart="213.40" departLane="best" from="601455489" to="-597619420"/>
    <trip id="veh289" type="veh_passenger" depart="214.14" departLane="best" from="-598686809#0" to="-374515769#0"/>
    <trip id="veh290" type="veh_passenger" depart="214.88" departLane="best" from="-1023619581#5" to="28924715#3"/>
    <trip id="veh292" type="veh_passenger" depart="216.36" departLane="best" from="705238975#2" to="704626470#2"/>
    <trip id="veh294" type="veh_passenger" depart="217.84" departLane="best" departSpeed="max" from="683882970#0" to="944894013#1"/>
    <trip id="veh295" type="veh_passenger" depart="218.58" departLane="best" from="708533143#7" to="598767891#3"/>