<?xml version="1.0" encoding="UTF-8"?>

<!-- generated on 2024-08-23 15:22:11.479785 by osmWebWizard.py v1_20_0+0002-343658e7c64
<configuration>
    <net-file value="C:\Users\ADMIN\Sumo\2024-08-23-15-21-40\osm.net.xml.gz"/>
    <output-trip-file value="C:\Users\ADMIN\Sumo\2024-08-23-15-21-40\osm.bus.trips.xml"/>
    <route-file value="C:\Users\ADMIN\Sumo\2024-08-23-15-21-40\osm.bus.rou.xml"/>
    <prefix value="bus"/>
    <trip-attributes value="departLane=&quot;best&quot;"/>
    <fringe-start-attributes value="departSpeed=&quot;max&quot;"/>
    <vehicle-class value="bus"/>
    <fringe-factor value="4"/>
    <vclass value="bus"/>
    <via-edge-types value="highway.motorway,highway.motorway_link,highway.trunk_link,highway.primary_link,highway.secondary_link,highway.tertiary_link"/>
    <min-distance value="600.0"/>
    <min-distance.fringe value="10.0"/>
    <remove-loops value="True"/>
    <validate value="True"/>
    <insertion-density value="25.0"/>
</configuration>
-->

<!-- generated on 2024-08-23 15:22:10 by Eclipse SUMO duarouter Version 1.20.0
<configuration xmlns:xsi="http://www.w3.org/2001/XMLSchema-instance" xsi:noNamespaceSchemaLocation="http://sumo.dlr.de/xsd/duarouterConfiguration.xsd">

    <input>
        <net-file value="C:\Users\ADMIN\Sumo\2024-08-23-15-21-40\osm.net.xml.gz"/>
        <route-files value="C:\Users\ADMIN\Sumo\2024-08-23-15-21-40\osm.bus.trips.xml"/>
    </input>

    <output>
        <output-file value="C:\Users\ADMIN\Sumo\2024-08-23-15-21-40\osm.bus.trips.xml.tmp"/>
        <alternatives-output value="NUL"/>
        <write-trips value="true"/>
    </output>

    <processing>
        <remove-loops value="true"/>
    </processing>

    <time>
        <begin value="0.0"/>
        <end value="3600.0"/>
    </time>

    <report>
        <no-warnings value="true"/>
        <ignore-errors value="true"/>
        <no-step-log value="true"/>
    </report>

</configuration>
-->

<routes xmlns:xsi="http://www.w3.org/2001/XMLSchema-instance" xsi:noNamespaceSchemaLocation="http://sumo.dlr.de/xsd/routes_file.xsd">
    <vType id="bus_bus" vClass="bus"/>
    <trip id="bus0" type="bus_bus" depart="0.00" departLane="best" departSpeed="max" from="-472838714#0" to="1137523200"/>
    <trip id="bus1" type="bus_bus" depart="2.48" departLane="best" from="838425490#0" to="374515769#2"/>
    <trip id="bus2" type="bus_bus" depart="4.95" departLane="best" from="1058963343" to="-1226367640#1"/>
    <trip id="bus6" type="bus_bus" depart="14.86" departLane="best" from="704606545#1" to="-1033758959"/>
    <trip id="bus7" type="bus_bus" depart="17.33" departLane="best" from="704606544#0" to="598767882#1"/>
    <trip id="bus9" type="bus_bus" depart="22.28" departLane="best" from="944894014#3" to="-889984934"/>
    <trip id="bus10" type="bus_bus" depart="24.76" departLane="best" from="-374515771#2" to="-37731777#1"/>
    <trip id="bus12" type="bus_bus" depart="29.71" departLane="best" from="704606544#2" to="-399451682#0"/>
    <trip id="bus13" type="bus_bus" depart="32.19" departLane="best" departSpeed="max" from="36084921#0" to="952211062"/>
    <trip id="bus15" type="bus_bus" depart="37.14" departLane="best" from="708964309" to="-397993967#1"/>
    <trip id="bus17" type="bus_bus" depart="42.09" departLane="best" departSpeed="max" from="-598767871" to="-705244864#0"/>
    <trip id="bus18" type="bus_bus" depart="44.57" departLane="best" from="369969171#1" to="598767882#4"/>
    <trip id="bus19" type="bus_bus" depart="47.04" departLane="best" from="37731777#2" to="-684504394"/>
    <trip id="bus20" type="bus_bus" depart="49.52" departLane="best" departSpeed="max" from="-889984993" to="598686799#1"/>
    <trip id="bus21" type="bus_bus" depart="51.99" departLane="best" from="-684524088#1" to="-897406810#1"/>
    <trip id="bus22" type="bus_bus" depart="54.47" departLane="best" from="-50536193#5" to="1023619581#2"/>
    <trip id="bus24" type="bus_bus" depart="59.42" departLane="best" from="708533143#8" to="704641291#4"/>
    <trip id="bus27" type="bus_bus" depart="66.85" departLane="best" from="777634834" to="764127634#0"/>
    <trip id="bus28" type="bus_bus" depart="69.32" departLane="best" from="875229047#0" to="1262814761"/>
    <trip id="bus29" type="bus_bus" depart="71.80" departLane="best" from="-374515768#1" to="-684283612#0"/>
    <trip id="bus30" type="bus_bus" depart="74.28" departLane="best" departSpeed="max" from="-953297055#1" to="598686807#1"/>
    <trip id="bus32" type="bus_bus" depart="79.23" departLane="best" from="28924711#0" to="1023619581#5"/>
    <trip id="bus33" type="bus_bus" depart="81.70" departLane="best" from="962177671#0" to="37370975#4"/>
    <trip id="bus34" type="bus_bus" depart="84.18" departLane="best" from="946030658#1" to="764127634#0"/>
    <trip id="bus36" type="bus_bus" depart="89.13" departLane="best" from="597550109#2" to="374515769#1"/>
    <trip id="bus37" type="bus_bus" depart="91.61" departLane="best" from="-684524088#0" to="597550109#2"/>
    <trip id="bus39" type="bus_bus" depart="96.56" departLane="best" from="764842481" to="-684283612#0"/>
    <trip id="bus40" type="bus_bus" depart="99.04" departLane="best" from="848915397#4" to="782027542#0"/>
    <trip id="bus41" type="bus_bus" depart="101.51" departLane="best" from="708533143#8" to="597550107#1"/>
    <trip id="bus42" type="bus_bus" depart="103.99" departLane="best" from="397993967#3" to="-477390127#3"/>
    <trip id="bus43" type="bus_bus" depart="106.46" departLane="best" from="675212141#3" to="374515771#2"/>
    <trip id="bus44" type="bus_bus" depart="108.94" departLane="best" from="-1112836173" to="889984993"/>
    <trip id="bus46" type="bus_bus" depart="113.89" departLane="best" departSpeed="max" from="-763602931" to="220360797#3"/>
    <trip id="bus48" type="bus_bus" depart="118.84" departLane="best" from="-369969171#7" to="163843399#2"/>
    <trip id="bus49" type="bus_bus" depart="121.32" departLane="best" departSpeed="max" from="-28924715#3" to="704595023#1"/>
    <trip id="bus50" type="bus_bus" depart="123.79" departLane="best" from="1258466604#5" to="-37731777#5"/>
    <trip id="bus51" type="bus_bus" depart="126.27" departLane="best" departSpeed="max" from="1075137417" to="598686800#2"/>
    <trip id="bus52" type="bus_bus" depart="128.75" departLane="best" from="-36730546#1" to="-399451682#0"/>
    <trip id="bus54" type="bus_bus" depart="133.70" departLane="best" departSpeed="max" from="-28924715#3" to="-593638911#3"/>
    <trip id="bus55" type="bus_bus" depart="136.17" departLane="best" departSpeed="max" from="-598767871" to="888441063"/>
    <trip id="bus56" type="bus_bus" depart="138.65" departLane="best" from="1258466604#2" to="705219055"/>
    <trip id="bus57" type="bus_bus" depart="141.13" departLane="best" from="704606544#2" to="-597619417"/>
    <trip id="bus58" type="bus_bus" depart="143.60" departLane="best" from="-374515771#6" to="-1201840040#1"/>
    <trip id="bus60" type="bus_bus" depart="148.55" departLane="best" departSpeed="max" from="-953330595" to="-889984938"/>
    <trip id="bus63" type="bus_bus" depart="155.98" departLane="best" from="1058963343" to="-684504394"/>
    <trip id="bus64" type="bus_bus" depart="158.46" departLane="best" from="1112836172#1" to="764127634#0"/>
    <trip id="bus65" type="bus_bus" depart="160.93" departLane="best" from="965574225" to="763602931"/>
    <trip id="bus66" type="bus_bus" depart="163.41" departLane="best" from="946030639#3" to="889984991"/>
    <trip id="bus69" type="bus_bus" depart="170.84" departLane="best" from="-946030627#0" to="953330595"/>
    <trip id="bus71" type="bus_bus" depart="175.79" departLane="best" from="1262815037#1" to="-601529284#2"/>
    <trip id="bus72" type="bus_bus" depart="178.26" departLane="best" from="-50536193#0" to="-708533143#11"/>
    <trip id="bus73" type="bus_bus" depart="180.74" departLane="best" from="946030639#3" to="-397993967#3"/>
    <trip id="bus74" type="bus_bus" depart="183.22" departLane="best" from="-220360797#2" to="399449409#10"/>
    <trip id="bus77" type="bus_bus" depart="190.64" departLane="best" from="838419183" to="598767891#3"/>
    <trip id="bus78" type="bus_bus" depart="193.12" departLane="best" from="-397992225#10" to="50536193#4"/>
    <trip id="bus79" type="bus_bus" depart="195.59" departLane="best" from="1042201641" to="399449409#10"/>
    <trip id="bus80" type="bus_bus" depart="198.07" departLane="best" from="25953552#1" to="896411624"/>
    <trip id="bus83" type="bus_bus" depart="205.50" departLane="best" from="29313247#1" to="1262814761"/>
    <trip id="bus85" type="bus_bus" depart="210.45" departLane="best" from="29313247#2" to="598686800#3"/>
    <trip id="bus88" type="bus_bus" depart="217.88" departLane="best" departSpeed="max" from="-889984993" to="50536193#12"/>
    <trip id="bus89" type="bus_bus" depart="220.35" departLane="best" from="708920949" to="598767887#3"/>
    <trip id="bus95" type="bus_bus" depart="235.21" departLane="best" from="-1023619581#4" to="704641291#1"/>
    <trip id="bus98" type="bus_bus" depart="242.64" departLane="best" from="838425492#5" to="-374515772#1"/>
    <trip id="bus99" type="bus_bus" depart="245.11" departLane="best" from="-708521402#1" to="399449409#0"/>
    <trip id="bus100" type="bus_bus" depart="247.59" departLane="best" from="465069896#0" to="-397993967#4"/>
    <trip id="bus101" type="bus_bus" depart="250.06" departLane="best" from="838425491#4" to="-598686800#0"/>
    <trip id="bus103" type="bus_bus" depart="255.02" departLane="best" departSpeed="max" from="684504391" to="838425491#0"/>
    <trip id="bus104" type="bus_bus" depart="257.49" departLane="best" from="-961713523#2" to="50536193#6"/>
    <trip id="bus105" type="bus_bus" depart="259.97" departLane="best" from="-50536193#0" to="889984993"/>
    <trip id="bus106" type="bus_bus" depart="262.44" departLane="best" from="704626468#1" to="838425490#0"/>
    <trip id="bus107" type="bus_bus" depart="264.92" departLane="best" from="-1204908492" to="-684283625#1"/>
    <trip id="bus108" type="bus_bus" depart="267.40" departLane="best" from="704595019#1" to="764842478"/>
    <trip id="bus109" type="bus_bus" depart="269.87" departLane="best" from="704626468#1" to="-684283623#0"/>
    <trip id="bus110" type="bus_bus" depart="272.35" departLane="best" departSpeed="max" from="684504394" to="38107924#5"/>
    <trip id="bus113" type="bus_bus" depart="279.77" departLane="best" from="1201840040#1" to="-597619421"/>
    <trip id="bus114" type="bus_bus" depart="282.25" departLane="best" from="946030639#0" to="-684504394"/>
    <trip id="bus116" type="bus_bus" depart="287.20" departLane="best" from="953227384#1" to="374515768#2"/>
    <trip id="bus118" type="bus_bus" depart="292.15" departLane="best" from="946030658#0" to="593647269#0"/>
    <trip id="bus122" type="bus_bus" depart="302.06" departLane="best" from="946030639#3" to="-397993693"/>
    <trip id="bus123" type="bus_bus" depart="304.53" departLane="best" from="601529284#1" to="598788857#1"/>
    <trip id="bus124" type="bus_bus" depart="307.01" departLane="best" from="-1023619581#2" to="-889984978"/>
    <trip id="bus129" type="bus_bus" depart="319.39" departLane="best" departSpeed="max" from="-953330595" to="-708533143#10"/>
    <trip id="bus130" type="bus_bus" depart="321.86" departLane="best" from="-397992225#9" to="1119786561#0"/>
    <trip id="bus131" type="bus_bus" depart="324.34" departLane="best" from="838425492#3" to="-50536193#13"/>
    <trip id="bus132" type="bus_bus" depart="326.82" departLane="best" from="708576779#0" to="-37731777#2"/>
    <trip id="bus133" type="bus_bus" depart="329.29" departLane="best" from="-1023619581#1" to="693286036#4"/>
    <trip id="bus134" type="bus_bus" depart="331.77" departLane="best" departSpeed="max" from="1077390705#0" to="-397993967#4"/>
    <trip id="bus136" type="bus_bus" depart="336.72" departLane="best" from="1258466604#3" to="875229047#1"/>
    <trip id="bus137" type="bus_bus" depart="339.20" departLane="best" from="-593647269#0" to="-598767870"/>
    <trip id="bus139" type="bus_bus" depart="344.15" departLane="best" from="136176013#0" to="598767891#1"/>
    <trip id="bus141" type="bus_bus" depart="349.10" departLane="best" from="593642481#0" to="-946030639#3"/>
    <trip id="bus142" type="bus_bus" depart="351.58" departLane="best" from="220307073" to="-136258948"/>
    <trip id="bus144" type="bus_bus" depart="356.53" departLane="best" departSpeed="max" from="1119786563" to="708521402#1"/>
    <trip id="bus145" type="bus_bus" depart="359.00" departLane="best" from="-397992225#2" to="946030627#3"/>
    <trip id="bus146" type="bus_bus" depart="361.48" departLane="best" from="838419185" to="-50536193#1"/>
    <trip id="bus149" type="bus_bus" depart="368.91" departLane="best" from="838425491#2" to="693286036#2"/>
    <trip id="bus151" type="bus_bus" depart="373.86" departLane="best" from="-598788857#1" to="597550107#0"/>
    <trip id="bus153" type="bus_bus" depart="378.81" departLane="best" from="-36730546#0" to="693286036#3"/>
    <trip id="bus154" type="bus_bus" depart="381.29" departLane="best" from="-36730546#1" to="399449409#9"/>
    <trip id="bus156" type="bus_bus" depart="386.24" departLane="best" from="-1023619581#1" to="374515771#5"/>
    <trip id="bus159" type="bus_bus" depart="393.67" departLane="best" from="-946030627#1" to="-1033758959"/>
    <trip id="bus160" type="bus_bus" depart="396.14" departLane="best" from="-889984929#4" to="702933227"/>
    <trip id="bus161" type="bus_bus" depart="398.62" departLane="best" departSpeed="max" from="708920951#0" to="946030629#2"/>
    <trip id="bus164" type="bus_bus" depart="406.04" departLane="best" from="1231582014#0" to="-397993967#4"/>
    <trip id="bus166" type="bus_bus" depart="411.00" departLane="best" departSpeed="max" from="-953277980" to="38107924#5"/>
    <trip id="bus167" type="bus_bus" depart="413.47" departLane="best" from="136176013#0" to="1023619581#2"/>
    <trip id="bus169" type="bus_bus" depart="418.42" departLane="best" from="-675212141#2" to="1023619581#2"/>
    <trip id="bus170" type="bus_bus" depart="420.90" departLane="best" from="601529284#2" to="711379742#1"/>
    <trip id="bus171" type="bus_bus" depart="423.38" departLane="best" departSpeed="max" from="-599191522#1" to="374515768#2"/>
    <trip id="bus172" type="bus_bus" depart="425.85" departLane="best" from="965574225" to="-889984976"/>
    <trip id="bus173" type="bus_bus" depart="428.33" departLane="best" from="-50536193#11" to="-705219054"/>
    <trip id="bus174" type="bus_bus" depart="430.80" departLane="best" from="-50536193#12" to="702933227"/>
    <trip id="bus175" type="bus_bus" depart="433.28" departLane="best" from="1112836175" to="-477390127#3"/>
    <trip id="bus176" type="bus_bus" depart="435.76" departLane="best" departSpeed="max" from="598675459" to="704626468#1"/>
    <trip id="bus178" type="bus_bus" depart="440.71" departLane="best" from="601455489" to="397992225#4"/>
    <trip id="bus179" type="bus_bus" depart="443.18" departLane="best" from="705244864#0" to="947077277#0"/>
    <trip id="bus182" type="bus_bus" depart="450.61" departLane="best" from="-597619416" to="546999873#5"/>
    <trip id="bus183" type="bus_bus" depart="453.09" departLane="best" from="37731777#4" to="704641291#2"/>
    <trip id="bus184" type="bus_bus" depart="455.56" departLane="best" from="-397992225#3" to="953297055#1"/>
    <trip id="bus185" type="bus_bus" depart="458.04" departLane="best" from="-156006452#1" to="889984961"/>
    <trip id="bus186" type="bus_bus" depart="460.51" departLane="best" from="708920948" to="-708920953#1"/>
    <trip id="bus191" type="bus_bus" depart="472.89" departLane="best" from="693286036#2" to="-708533143#7"/>
    <trip id="bus194" type="bus_bus" depart="480.32" departLane="best" from="1204908492" to="-477390127#3"/>
    <trip id="bus195" type="bus_bus" depart="482.80" departLane="best" from="946030627#0" to="-1226367640#0"/>
    <trip id="bus197" type="bus_bus" depart="487.75" departLane="best" from="1042201641" to="946030627#1"/>
    <trip id="bus200" type="bus_bus" depart="495.18" departLane="best" from="-597619418" to="-708920951#0"/>
    <trip id="bus202" type="bus_bus" depart="500.13" departLane="best" from="29313247#1" to="1119786564#0"/>
    <trip id="bus203" type="bus_bus" depart="502.60" departLane="best" departSpeed="max" from="-599191522#1" to="397993693"/>
    <trip id="bus204" type="bus_bus" depart="505.08" departLane="best" departSpeed="max" from="36084921#0" to="704606544#1"/>
    <trip id="bus205" type="bus_bus" depart="507.56" departLane="best" from="947077277#1" to="37370971#2"/>
    <trip id="bus206" type="bus_bus" depart="510.03" departLane="best" departSpeed="max" from="-705219055" to="-37731777#6"/>
    <trip id="bus209" type="bus_bus" depart="517.46" departLane="best" from="711379743#3" to="220307072#2"/>
    <trip id="bus211" type="bus_bus" depart="522.41" departLane="best" from="-597607818" to="-136258948"/>
    <trip id="bus213" type="bus_bus" depart="527.36" departLane="best" from="705782098#0" to="11007689#0"/>
    <trip id="bus214" type="bus_bus" depart="529.84" departLane="best" from="29313247#3" to="-593638911#1"/>
    <trip id="bus215" type="bus_bus" depart="532.31" departLane="best" from="-156006452#1" to="-477390127#1"/>
    <trip id="bus220" type="bus_bus" depart="544.69" departLane="best" from="-399451682#1" to="-477390127#3"/>
    <trip id="bus223" type="bus_bus" depart="552.12" departLane="best" from="-397992225#10" to="-705244864#2"/>
    <trip id="bus224" type="bus_bus" depart="554.60" departLane="best" from="597555267#3" to="-889984976"/>
    <trip id="bus225" type="bus_bus" depart="557.07" departLane="best" from="-684524088#0" to="546999873#0"/>
    <trip id="bus227" type="bus_bus" depart="562.03" departLane="best" from="705794058#2" to="-369969171#0"/>
    <trip id="bus228" type="bus_bus" depart="564.50" departLane="best" from="-50536193#8" to="-708920951#0"/>
    <trip id="bus229" type="bus_bus" depart="566.98" departLane="best" from="601455489" to="397992225#2"/>
    <trip id="bus230" type="bus_bus" depart="569.45" departLane="best" from="597607818" to="598767885#1"/>
    <trip id="bus231" type="bus_bus" depart="571.93" departLane="best" departSpeed="max" from="889985037" to="28924715#0"/>
    <trip id="bus234" type="bus_bus" depart="579.36" departLane="best" from="708533143#10" to="397992225#8"/>
    <trip id="bus235" type="bus_bus" depart="581.83" departLane="best" from="-593647269#0" to="684343746"/>
    <trip id="bus237" type="bus_bus" depart="586.78" departLane="best" from="1258466604#0" to="597619418"/>
    <trip id="bus243" type="bus_bus" depart="601.64" departLane="best" departSpeed="max" from="1119786563" to="764127634#0"/>
    <trip id="bus244" type="bus_bus" depart="604.12" departLane="best" from="-954126480" to="369969171#0"/>
    <trip id="bus245" type="bus_bus" depart="606.59" departLane="best" from="-954126480" to="598675460"/>
    <trip id="bus246" type="bus_bus" depart="609.07" departLane="best" from="-597619418" to="946030627#1"/>
    <trip id="bus247" type="bus_bus" depart="611.54" departLane="best" from="613324910#4" to="546999873#3"/>
    <trip id="bus248" type="bus_bus" depart="614.02" departLane="best" from="675212141#1" to="-598685154#1"/>
    <trip id="bus249" type="bus_bus" depart="616.49" departLane="best" from="37370971#0" to="889984993"/>
    <trip id="bus251" type="bus_bus" depart="621.45" departLane="best" from="37370973#2" to="374515771#6"/>
    <trip id="bus252" type="bus_bus" depart="623.92" departLane="best" from="961664403#1" to="-889984933"/>
    <trip id="bus253" type="bus_bus" depart="626.40" departLane="best" from="1112836174#1" to="397992225#7"/>
    <trip id="bus256" type="bus_bus" depart="633.83" departLane="best" departSpeed="max" from="-702933227" to="711379743#3"/>
    <trip id="bus259" type="bus_bus" depart="641.25" departLane="best" departSpeed="max" from="-705219055" to="-708533143#3"/>
    <trip id="bus261" type="bus_bus" depart="646.20" departLane="best" from="36730546#0" to="889984965"/>
    <trip id="bus262" type="bus_bus" depart="648.68" departLane="best" from="37370973#1" to="374515771#6"/>
    <trip id="bus263" type="bus_bus" depart="651.16" departLane="best" departSpeed="max" from="1119786563" to="782027542#4"/>
    <trip id="bus264" type="bus_bus" depart="653.63" departLane="best" from="-597619420" to="598767884#3"/>
    <trip id="bus265" type="bus_bus" depart="656.11" departLane="best" from="-374515771#5" to="598767882#4"/>
    <trip id="bus267" type="bus_bus" depart="661.06" departLane="best" from="704626468#1" to="1040701625"/>
    <trip id="bus268" type="bus_bus" depart="663.54" departLane="best" from="953227384#1" to="220360797#2"/>
    <trip id="bus269" type="bus_bus" depart="666.01" departLane="best" from="-38107924#5" to="777634834"/>
    <trip id="bus273" type="bus_bus" depart="675.92" departLane="best" from="-946030627#1" to="-764127635"/>
    <trip id="bus274" type="bus_bus" depart="678.39" departLane="best" departSpeed="max" from="-28924715#3" to="-593638911#3"/>
    <trip id="bus275" type="bus_bus" depart="680.87" departLane="best" from="-889984929#4" to="962177672"/>
    <trip id="bus276" type="bus_bus" depart="683.34" departLane="best" from="374515772#1" to="-593642481#1"/>
    <trip id="bus277" type="bus_bus" depart="685.82" departLane="best" from="764127634#1" to="1226367640#1"/>
    <trip id="bus278" type="bus_bus" depart="688.29" departLane="best" from="-597619421" to="888441063"/>
    <trip id="bus283" type="bus_bus" depart="700.67" departLane="best" from="601529284#1" to="-675212143#1"/>
    <trip id="bus284" type="bus_bus" depart="703.15" departLane="best" from="1042201641" to="708533143#2"/>
    <trip id="bus287" type="bus_bus" depart="710.58" departLane="best" from="838425492#5" to="399449409#2"/>
    <trip id="bus290" type="bus_bus" depart="718.01" departLane="best" from="-598685155#2" to="1031913854"/>
    <trip id="bus292" type="bus_bus" depart="722.96" departLane="best" from="-374515771#5" to="397992225#8"/>
    <trip id="bus293" type="bus_bus" depart="725.43" departLane="best" from="-961713523#0" to="708521402#3"/>
    <trip id="bus294" type="bus_bus" depart="727.91" departLane="best" from="952211060#1" to="598675460"/>
    <trip id="bus295" type="bus_bus" depart="730.38" departLane="best" departSpeed="max" from="-702933227" to="38107924#6"/>
    <trip id="bus297" type="bus_bus" depart="735.34" departLane="best" from="136176013#3" to="888441063"/>
    <trip id="bus301" type="bus_bus" depart="745.24" departLane="best" from="708533143#3" to="693286037"/>
    <trip id="bus302" type="bus_bus" depart="747.72" departLane="best" from="593642481#0" to="399449409#3"/>
    <trip id="bus303" type="bus_bus" depart="750.19" departLane="best" from="-36730546#1" to="952211060#2"/>
    <trip id="bus304" type="bus_bus" depart="752.67" departLane="best" from="29313247#1" to="-889984934"/>
    <trip id="bus305" type="bus_bus" depart="755.14" departLane="best" from="705794058#0" to="163843396#0"/>
    <trip id="bus306" type="bus_bus" depart="757.62" departLane="best" from="704606544#1" to="693286036#5"/>
    <trip id="bus307" type="bus_bus" depart="760.10" departLane="best" from="946030629#0" to="-465069896#0"/>
    <trip id="bus309" type="bus_bus" depart="765.05" departLane="best" from="-593647269#0" to="399449409#10"/>
    <trip id="bus310" type="bus_bus" depart="767.52" departLane="best" from="705782098#0" to="944894013#1"/>
    <trip id="bus314" type="bus_bus" depart="777.43" departLane="best" from="705782098#2" to="889984929#2"/>
    <trip id="bus315" type="bus_bus" depart="779.90" departLane="best" from="708920953#0" to="-1110241178"/>
    <trip id="bus317" type="bus_bus" depart="784.85" departLane="best" from="374515772#0" to="838425491#3"/>
    <trip id="bus318" type="bus_bus" depart="787.33" departLane="best" from="593642481#1" to="693286036#1"/>
    <trip id="bus321" type="bus_bus" depart="794.76" departLane="best" from="1033758958" to="-37731777#5"/>
    <trip id="bus323" type="bus_bus" depart="799.71" departLane="best" from="944894013#1" to="-1231582014#1"/>
    <trip id="bus324" type="bus_bus" depart="802.19" departLane="best" departSpeed="max" from="-889984993" to="1226367640#1"/>
    <trip id="bus325" type="bus_bus" depart="804.66" departLane="best" from="37731777#0" to="598767865#1"/>
    <trip id="bus328" type="bus_bus" depart="812.09" departLane="best" from="-597619421" to="-397993967#0"/>
    <trip id="bus330" type="bus_bus" depart="817.04" departLane="best" from="-397992225#4" to="1110152447"/>
    <trip id="bus331" type="bus_bus" depart="819.52" departLane="best" from="-397992225#8" to="38107924#5"/>
    <trip id="bus333" type="bus_bus" depart="824.47" departLane="best" from="-399451682#1" to="875229047#1"/>
    <trip id="bus335" type="bus_bus" depart="829.42" departLane="best" departSpeed="max" from="-599191522#1" to="-593638911#3"/>
    <trip id="bus336" type="bus_bus" depart="831.90" departLane="best" from="-50536193#9" to="1137523200"/>
    <trip id="bus339" type="bus_bus" depart="839.32" departLane="best" from="593638911#3" to="-136258948"/>
    <trip id="bus341" type="bus_bus" depart="844.28" departLane="best" departSpeed="max" from="684504391" to="36730546#0"/>
    <trip id="bus344" type="bus_bus" depart="851.70" departLane="best" departSpeed="max" from="684504393" to="-764859227"/>
    <trip id="bus345" type="bus_bus" depart="854.18" departLane="best" from="-220360797#2" to="1262814761"/>
    <trip id="bus346" type="bus_bus" depart="856.65" departLane="best" from="1258466604#9" to="11007689#1"/>
    <trip id="bus347" type="bus_bus" depart="859.13" departLane="best" from="848915397#1" to="-369969171#2"/>
    <trip id="bus348" type="bus_bus" depart="861.61" departLane="best" from="-369969171#2" to="472838714#2"/>
    <trip id="bus351" type="bus_bus" depart="869.03" departLane="best" departSpeed="max" from="397993967#0" to="-37731777#5"/>
    <trip id="bus353" type="bus_bus" depart="873.99" departLane="best" from="50536193#11" to="704626470#3"/>
    <trip id="bus355" type="bus_bus" depart="878.94" departLane="best" departSpeed="max" from="1077390705#0" to="-598686800#0"/>
    <trip id="bus356" type="bus_bus" depart="881.41" departLane="best" departSpeed="max" from="-889985038" to="-477390127#3"/>
    <trip id="bus359" type="bus_bus" depart="888.84" departLane="best" from="-374515771#6" to="684343746"/>
    <trip id="bus362" type="bus_bus" depart="896.27" departLane="best" from="-889984932" to="-598686800#0"/>
    <trip id="bus363" type="bus_bus" depart="898.74" departLane="best" from="-397992225#8" to="-889984977"/>
    <trip id="bus364" type="bus_bus" depart="901.22" departLane="best" from="37731777#2" to="598686800#3"/>
    <trip id="bus365" type="bus_bus" depart="903.70" departLane="best" from="-50536193#5" to="598767865#0"/>
    <trip id="bus367" type="bus_bus" depart="908.65" departLane="best" from="374515772#0" to="708533143#5"/>
    <trip id="bus368" type="bus_bus" depart="911.12" departLane="best" from="708607650#0" to="-953227384#2"/>
    <trip id="bus369" type="bus_bus" depart="913.60" departLane="best" from="705219054" to="50536193#11"/>
    <trip id="bus370" type="bus_bus" depart="916.08" departLane="best" from="-684524088#1" to="-597136847#0"/>
    <trip id="bus371" type="bus_bus" depart="918.55" departLane="best" departSpeed="max" from="598685154#0" to="-708920952"/>
    <trip id="bus372" type="bus_bus" depart="921.03" departLane="best" departSpeed="max" from="-953330595" to="-472432750"/>
    <trip id="bus374" type="bus_bus" depart="925.98" departLane="best" from="-369969171#7" to="-136258948"/>
    <trip id="bus379" type="bus_bus" depart="938.36" departLane="best" departSpeed="max" from="-953277980" to="399835468#5"/>
    <trip id="bus380" type="bus_bus" depart="940.83" departLane="best" departSpeed="max" from="-1040701625" to="-708533143#7"/>
    <trip id="bus382" type="bus_bus" depart="945.79" departLane="best" from="29313247#1" to="764127634#1"/>
    <trip id="bus384" type="bus_bus" depart="950.74" departLane="best" from="-889984929#4" to="764127634#1"/>
    <trip id="bus385" type="bus_bus" depart="953.21" departLane="best" from="37731777#0" to="397992225#6"/>
    <trip id="bus387" type="bus_bus" depart="958.17" departLane="best" from="-38107924#4" to="-11007689#9"/>
    <trip id="bus390" type="bus_bus" depart="965.59" departLane="best" from="-889984929#2" to="-374515771#0"/>
    <trip id="bus391" type="bus_bus" depart="968.07" departLane="best" from="-708576779#0" to="598767891#0"/>
    <trip id="bus392" type="bus_bus" depart="970.55" departLane="best" departSpeed="max" from="-953277980" to="-708920953#1"/>
    <trip id="bus396" type="bus_bus" depart="980.45" departLane="best" departSpeed="max" from="848915389" to="-889984970"/>
    <trip id="bus397" type="bus_bus" depart="982.92" departLane="best" departSpeed="max" from="598767879" to="708920950#0"/>
    <trip id="bus399" type="bus_bus" depart="987.88" departLane="best" from="-399451682#0" to="-598675459"/>
    <trip id="bus400" type="bus_bus" depart="990.35" departLane="best" from="50536193#3" to="-593642481#1"/>
    <trip id="bus401" type="bus_bus" depart="992.83" departLane="best" departSpeed="max" from="684283612#0" to="220360797#1"/>
    <trip id="bus402" type="bus_bus" depart="995.30" departLane="best" from="613324910#2" to="704595022"/>
    <trip id="bus404" type="bus_bus" depart="1000.26" departLane="best" departSpeed="max" from="374515769#0" to="593647269#0"/>
    <trip id="bus406" type="bus_bus" depart="1005.21" departLane="best" from="465069896#0" to="-477390127#1"/>
    <trip id="bus410" type="bus_bus" depart="1015.11" departLane="best" from="-36730546#0" to="764842478"/>
    <trip id="bus411" type="bus_bus" depart="1017.59" departLane="best" departSpeed="max" from="708920951#0" to="-50536193#13"/>
    <trip id="bus414" type="bus_bus" depart="1025.01" departLane="best" from="704626468#0" to="597619418"/>