<?xml version="1.0" encoding="UTF-8"?>

<!-- generated on 2024-08-23 15:22:31.488279 by osmWebWizard.py v1_20_0+0002-343658e7c64
<configuration>
    <net-file value="C:\Users\ADMIN\Sumo\2024-08-23-15-21-40\osm.net.xml.gz"/>
    <additional-files value="C:\Users\ADMIN\Sumo\2024-08-23-15-21-40\osm_stops.add.xml,C:\Users\ADMIN\Sumo\2024-08-23-15-21-40\osm_pt.rou.xml"/>
    <output-trip-file value="C:\Users\ADMIN\Sumo\2024-08-23-15-21-40\osm.pedestrian.trips.xml"/>
    <route-file value="C:\Users\ADMIN\Sumo\2024-08-23-15-21-40\osm.pedestrian.rou.xml"/>
    <persontrips value="True"/>
    <persontrip.walk-opposite-factor value="0.8"/>
    <prefix value="ped"/>
    <trip-attributes value="modes=&quot;public&quot;"/>
    <vehicle-class value="pedestrian"/>
    <fringe-factor value="2"/>
    <insertion-density value="20.0"/>
    <duarouter-weights.tls-penalty value="20"/>
</configuration>
-->

<routes xmlns:xsi="http://www.w3.org/2001/XMLSchema-instance" xsi:noNamespaceSchemaLocation="http://sumo.dlr.de/xsd/routes_file.xsd">
    <vType id="ped_pedestrian" vClass="pedestrian"/>
    <person id="ped0" depart="0.00" type="ped_pedestrian">
        <personTrip from="1206671090#2" to="-1098240014#1" modes="public"/>
    </person>
    <person id="ped1" depart="2.18" type="ped_pedestrian">
        <personTrip from="-826874588#1" to="-684283617#0" modes="public"/>
    </person>
    <person id="ped2" depart="4.35" type="ped_pedestrian">
        <personTrip from="1218545606" to="1207215775#0" modes="public"/>
    </person>
    <person id="ped3" depart="6.53" type="ped_pedestrian">
        <personTrip from="617320300#0" to="-1267842580#3" modes="public"/>
    </person>
    <person id="ped4" depart="8.71" type="ped_pedestrian">
        <personTrip from="1106611078#8" to="-1106598528#2" modes="public"/>
    </person>
    <person id="ped5" depart="10.89" type="ped_pedestrian">
        <personTrip from="-599159968" to="1107305110#2" modes="public"/>
    </person>
    <person id="ped6" depart="13.06" type="ped_pedestrian">
        <personTrip from="-1083919818" to="-598791590" modes="public"/>
    </person>
    <person id="ped7" depart="15.24" type="ped_pedestrian">
        <personTrip from="1206838362#3" to="11707000#2" modes="public"/>
    </person>
    <person id="ped8" depart="17.42" type="ped_pedestrian">
        <personTrip from="-601455470#1" to="1196399806" modes="public"/>
    </person>
    <person id="ped9" depart="19.60" type="ped_pedestrian">
        <personTrip from="597126919#1" to="-1024703359#0" modes="public"/>
    </person>
    <person id="ped10" depart="21.77" type="ped_pedestrian">
        <personTrip from="597126909#1" to="1208526765#0" modes="public"/>
    </person>
    <person id="ped11" depart="23.95" type="ped_pedestrian">
        <personTrip from="1080880645#6" to="-597607806" modes="public"/>
    </person>
    <person id="ped12" depart="26.13" type="ped_pedestrian">
        <personTrip from="863044706#1" to="1096184944" modes="public"/>
    </person>
    <person id="ped13" depart="28.31" type="ped_pedestrian">
        <personTrip from="-1237202845#1" to="-220307177#0" modes="public"/>
    </person>
    <person id="ped14" depart="30.48" type="ped_pedestrian">
        <personTrip from="598686796#0" to="1197061355#1" modes="public"/>
    </person>
    <person id="ped15" depart="32.66" type="ped_pedestrian">
        <personTrip from="597126912" to="1219188526" modes="public"/>
    </person>
    <person id="ped16" depart="34.84" type="ped_pedestrian">
        <personTrip from="1109199318#1" to="889984941" modes="public"/>
    </person>
    <person id="ped17" depart="37.02" type="ped_pedestrian">
        <personTrip from="1106598512#1" to="1192885695" modes="public"/>
    </person>
    <person id="ped18" depart="39.19" type="ped_pedestrian">
        <personTrip from="597607799#2" to="1206423371#9" modes="public"/>
    </person>
    <person id="ped19" depart="41.37" type="ped_pedestrian">
        <personTrip from="598756392#0" to="1196399768#2" modes="public"/>
    </person>
    <person id="ped20" depart="43.55" type="ped_pedestrian">
        <personTrip from="1208526762#1" to="-1192868589" modes="public"/>
    </person>
    <person id="ped21" depart="45.73" type="ped_pedestrian">
        <personTrip from="-601456707" to="-962179362#2" modes="public"/>
    </person>
    <person id="ped22" depart="47.90" type="ped_pedestrian">
        <personTrip from="-1207347224#1" to="-702933220" modes="public"/>
    </person>
    <person id="ped23" depart="50.08" type="ped_pedestrian">
        <personTrip from="-1255155122#0" to="-897372426" modes="public"/>
    </person>
    <person id="ped24" depart="52.26" type="ped_pedestrian">
        <personTrip from="1206532596" to="1106598513#1" modes="public"/>
    </person>
    <person id="ped25" depart="54.44" type="ped_pedestrian">
        <personTrip from="1106598507#0" to="-601456708" modes="public"/>
    </person>
    <person id="ped26" depart="56.61" type="ped_pedestrian">
        <personTrip from="-763602937#3" to="827582185" modes="public"/>
    </person>
    <person id="ped27" depart="58.79" type="ped_pedestrian">
        <personTrip from="1206838362#0" to="1202718343" modes="public"/>
    </person>
    <person id="ped28" depart="60.97" type="ped_pedestrian">
        <personTrip from="-597555259#0" to="1219188525#3" modes="public"/>
    </person>
    <person id="ped29" depart="63.15" type="ped_pedestrian">
        <personTrip from="-597136848#6" to="1106598519#3" modes="public"/>
    </person>
    <person id="ped30" depart="65.32" type="ped_pedestrian">
        <personTrip from="897413529#1" to="1206838362#3" modes="public"/>
    </person>
    <person id="ped31" depart="67.50" type="ped_pedestrian">
        <personTrip from="1161990802" to="1207479209#3" modes="public"/>
    </person>
    <person id="ped32" depart="69.68" type="ped_pedestrian">
        <personTrip from="598675469#1" to="374515770#1" modes="public"/>
    </person>
    <person id="ped33" depart="71.86" type="ped_pedestrian">
        <personTrip from="-601578008#1" to="-1110241177" modes="public"/>
    </person>
    <person id="ped34" depart="74.03" type="ped_pedestrian">
        <personTrip from="-961921082" to="-889984972#0" modes="public"/>
    </person>
    <person id="ped35" depart="76.21" type="ped_pedestrian">
        <personTrip from="-598767872" to="856290141#1" modes="public"/>
    </person>
    <person id="ped36" depart="78.39" type="ped_pedestrian">
        <personTrip from="599084822" to="1076308913" modes="public"/>
    </person>
    <person id="ped37" depart="80.57" type="ped_pedestrian">
        <personTrip from="1206838364#0" to="1106611076#1" modes="public"/>
    </person>
    <person id="ped38" depart="82.74" type="ped_pedestrian">
        <personTrip from="704617414#2" to="1107104322#4" modes="public"/>
    </person>
    <person id="ped39" depart="84.92" type="ped_pedestrian">
        <personTrip from="-719345489#1" to="-763602937#2" modes="public"/>
    </person>
    <person id="ped40" depart="87.10" type="ped_pedestrian">
        <personTrip from="1184245773#1" to="-889429785" modes="public"/>
    </person>
    <person id="ped41" depart="89.28" type="ped_pedestrian">
        <personTrip from="1196399756#1" to="684728089#1" modes="public"/>
    </person>
    <person id="ped42" depart="91.45" type="ped_pedestrian">
        <personTrip from="1106598524#1" to="-683871828#0" modes="public"/>
    </person>
    <person id="ped43" depart="93.63" type="ped_pedestrian">
        <personTrip from="953320554#0" to="1107305115#1" modes="public"/>
    </person>
    <person id="ped44" depart="95.81" type="ped_pedestrian">
        <personTrip from="-1237202840" to="-1192885696#1" modes="public"/>
    </person>
    <person id="ped45" depart="97.99" type="ped_pedestrian">
        <personTrip from="-1267842575" to="1206671089#1" modes="public"/>
    </person>
    <person id="ped46" depart="100.16" type="ped_pedestrian">
        <personTrip from="546999873#5" to="1106611088#5" modes="public"/>
    </person>
    <person id="ped47" depart="102.34" type="ped_pedestrian">
        <personTrip from="-1192885696#4" to="1106598524#0" modes="public"/>
    </person>
    <person id="ped48" depart="104.52" type="ped_pedestrian">
        <personTrip from="953277979" to="1113733615#4" modes="public"/>
    </person>
    <person id="ped49" depart="106.70" type="ped_pedestrian">
        <personTrip from="889429778" to="598767869#2" modes="public"/>
    </person>
    <person id="ped50" depart="108.87" type="ped_pedestrian">
        <personTrip from="-1038278511" to="1218545601" modes="public"/>
    </person>
    <person id="ped51" depart="111.05" type="ped_pedestrian">
        <personTrip from="1207141790" to="1130782598#2" modes="public"/>
    </person>
    <person id="ped52" depart="113.23" type="ped_pedestrian">
        <personTrip from="-763602937#3" to="1206838362#5" modes="public"/>
    </person>
    <person id="ped53" depart="115.41" type="ped_pedestrian">
        <personTrip from="-1267842581" to="1106791064#8" modes="public"/>
    </person>
    <person id="ped54" depart="117.58" type="ped_pedestrian">
        <personTrip from="1106791065#2" to="863044709" modes="public"/>
    </person>
    <person id="ped55" depart="119.76" type="ped_pedestrian">
        <personTrip from="598791590" to="-889429786#1" modes="public"/>
    </person>
    <person id="ped56" depart="121.94" type="ped_pedestrian">
        <personTrip from="1107305086#2" to="-598686815#2" modes="public"/>
    </person>
    <person id="ped57" depart="124.12" type="ped_pedestrian">
        <personTrip from="704595017" to="601455470#1" modes="public"/>
    </person>
    <person id="ped58" depart="126.29" type="ped_pedestrian">
        <personTrip from="-890573918" to="1206838362#1" modes="public"/>
    </person>
    <person id="ped59" depart="128.47" type="ped_pedestrian">
        <personTrip from="1196812866#1" to="-597607799#0" modes="public"/>
    </person>
    <person id="ped60" depart="130.65" type="ped_pedestrian">
        <personTrip from="1290403396#1" to="1136643893" modes="public"/>
    </person>
    <person id="ped61" depart="132.83" type="ped_pedestrian">
        <personTrip from="397992224#2" to="1113733616#1" modes="public"/>
    </person>
    <person id="ped62" depart="135.00" type="ped_pedestrian">
        <personTrip from="-1001057017" to="1080884318#1" modes="public"/>
    </person>
    <person id="ped63" depart="137.18" type="ped_pedestrian">
        <personTrip from="-1040758930#1" to="763602941" modes="public"/>
    </person>
    <person id="ped64" depart="139.36" type="ped_pedestrian">
        <personTrip from="599159966" to="598670304" modes="public"/>
    </person>
    <person id="ped65" depart="141.54" type="ped_pedestrian">
        <personTrip from="-905363915#10" to="-1197061361#0" modes="public"/>
    </person>
    <person id="ped66" depart="143.71" type="ped_pedestrian">
        <personTrip from="599147997" to="856290144#3" modes="public"/>
    </person>
    <person id="ped67" depart="145.89" type="ped_pedestrian">
        <personTrip from="-1218545613" to="1107305088#2" modes="public"/>
    </person>
    <person id="ped68" depart="148.07" type="ped_pedestrian">
        <personTrip from="-1196399798#0" to="1290580165#0" modes="public"/>
    </person>
    <person id="ped69" depart="150.25" type="ped_pedestrian">
        <personTrip from="1305864717" to="-596802483#0" modes="public"/>
    </person>
    <person id="ped70" depart="152.42" type="ped_pedestrian">
        <personTrip from="1107104322#4" to="1184245773#1" modes="public"/>
    </person>
    <person id="ped71" depart="154.60" type="ped_pedestrian">
        <personTrip from="-719345489#2" to="601455474#0" modes="public"/>
    </person>
    <person id="ped72" depart="156.78" type="ped_pedestrian">
        <personTrip from="1106611079#0" to="-601867552#2" modes="public"/>
    </person>
    <person id="ped73" depart="158.96" type="ped_pedestrian">
        <personTrip from="1111671762#0" to="1219188526" modes="public"/>
    </person>
    <person id="ped74" depart="161.13" type="ped_pedestrian">
        <personTrip from="-598756383#0" to="1042203888" modes="public"/>
    </person>
    <person id="ped75" depart="163.31" type="ped_pedestrian">
        <personTrip from="953253162" to="1206838366#1" modes="public"/>
    </person>
    <person id="ped76" depart="165.49" type="ped_pedestrian">
        <personTrip from="1106611088#4" to="1109199310#3" modes="public"/>
    </person>
    <person id="ped77" depart="167.67" type="ped_pedestrian">
        <personTrip from="-180082254#3" to="-684342609#0" modes="public"/>
    </person>
    <person id="ped78" depart="169.84" type="ped_pedestrian">
        <personTrip from="1080880645#3" to="1196399802" modes="public"/>
    </person>
    <person id="ped79" depart="172.02" type="ped_pedestrian">
        <personTrip from="-601861003#2" to="-683876834#1" modes="public"/>
    </person>
    <person id="ped80" depart="174.20" type="ped_pedestrian">
        <personTrip from="-1196399801#1" to="1206671092#1" modes="public"/>
    </person>
    <person id="ped81" depart="176.38" type="ped_pedestrian">
        <personTrip from="-601578008#0" to="704648918#2" modes="public"/>
    </person>
    <person id="ped82" depart="178.55" type="ped_pedestrian">
        <personTrip from="598756386#0" to="-1221468194" modes="public"/>
    </person>
    <person id="ped83" depart="180.73" type="ped_pedestrian">
        <personTrip from="-683876834#2" to="1207074267" modes="public"/>
    </person>
    <person id="ped84" depart="182.91" type="ped_pedestrian">
        <personTrip from="-598767881" to="-597126916#1" modes="public"/>
    </person>
    <person id="ped85" depart="185.09" type="ped_pedestrian">
        <personTrip from="816208527#0" to="1196399755#1" modes="public"/>
    </person>
    <person id="ped86" depart="187.26" type="ped_pedestrian">
        <personTrip from="1107104321#1" to="465069894#1" modes="public"/>
    </person>
    <person id="ped87" depart="189.44" type="ped_pedestrian">
        <personTrip from="597126912" to="-598756413#0" modes="public"/>
    </person>
    <person id="ped88" depart="191.62" type="ped_pedestrian">
        <personTrip from="-1253116777" to="1106791064#1" modes="public"/>
    </person>
    <person id="ped89" depart="193.80" type="ped_pedestrian">
        <personTrip from="1106611079#1" to="1107104328#0" modes="public"/>
    </person>
    <person id="ped90" depart="195.97" type="ped_pedestrian">
        <personTrip from="1218545597#4" to="1207141795#1" modes="public"/>
    </person>
    <person id="ped91" depart="198.15" type="ped_pedestrian">
        <personTrip from="890573918" to="-242518346#0" modes="public"/>
    </person>
    <person id="ped92" depart="200.33" type="ped_pedestrian">
        <personTrip from="1106598533#0" to="1098240012" modes="public"/>
    </person>
    <person id="ped93" depart="202.51" type="ped_pedestrian">
        <personTrip from="598756392#0" to="-77864349#0" modes="public"/>
    </person>
    <person id="ped94" depart="204.68" type="ped_pedestrian">
        <personTrip from="-598675474" to="1107104319#2" modes="public"/>
    </person>
    <person id="ped95" depart="206.86" type="ped_pedestrian">
        <personTrip from="1106611078#8" to="-897398092#1" modes="public"/>
    </person>
    <person id="ped96" depart="209.04" type="ped_pedestrian">
        <personTrip from="-702933220" to="711525255#0" modes="public"/>
    </person>
    <person id="ped97" depart="211.22" type="ped_pedestrian">
        <personTrip from="1106611092#0" to="598767873#0" modes="public"/>
    </person>
    <person id="ped98" depart="213.39" type="ped_pedestrian">
        <personTrip from="1125585782#1" to="-1192885701" modes="public"/>
    </person>
    <person id="ped99" depart="215.57" type="ped_pedestrian">
        <personTrip from="962179362#1" to="598675465#1" modes="public"/>
    </person>
    <person id="ped100" depart="217.75" type="ped_pedestrian">
        <personTrip from="877859666#0" to="763602937#3" modes="public"/>
    </person>
    <person id="ped101" depart="219.93" type="ped_pedestrian">
        <personTrip from="598686801" to="-598675469#0" modes="public"/>
    </person>
    <person id="ped102" depart="222.10" type="ped_pedestrian">
        <personTrip from="1107122328#0" to="-602362883" modes="public"/>
    </person>
    <person id="ped103" depart="224.28" type="ped_pedestrian">
        <personTrip from="1106598532#0" to="-1201678931" modes="public"/>
    </person>
    <person id="ped104" depart="226.46" type="ped_pedestrian">
        <personTrip from="1106598512#1" to="896652159" modes="public"/>
    </person>
    <person id="ped105" depart="228.64" type="ped_pedestrian">
        <personTrip from="-719345489#2" to="465069891" modes="public"/>
    </person>
    <person id="ped106" depart="230.81" type="ped_pedestrian">
        <personTrip from="1106791065#4" to="1106611089#2" modes="public"/>
    </person>
    <person id="ped107" depart="232.99" type="ped_pedestrian">
        <personTrip from="863044706#1" to="953277979" modes="public"/>
    </person>
    <person id="ped108" depart="235.17" type="ped_pedestrian">
        <personTrip from="1161990799#1" to="1218545597#4" modes="public"/>
    </person>
    <person id="ped109" depart="237.35" type="ped_pedestrian">
        <personTrip from="-596802483#1" to="1023619587#1" modes="public"/>
    </person>
    <person id="ped110" depart="239.52" type="ped_pedestrian">
        <personTrip from="877859666#0" to="1196399771" modes="public"/>
    </person>
    <person id="ped111" depart="241.70" type="ped_pedestrian">
        <personTrip from="1113733615#0" to="1255155123" modes="public"/>
    </person>
    <person id="ped112" depart="243.88" type="ped_pedestrian">
        <personTrip from="-1172019725" to="1196399779" modes="public"/>
    </person>
    <person id="ped113" depart="246.06" type="ped_pedestrian">
        <personTrip from="1107305090#0" to="598756388#1" modes="public"/>
    </person>
    <person id="ped114" depart="248.23" type="ped_pedestrian">
        <personTrip from="-597126916#1" to="877859660#1" modes="public"/>
    </person>
    <person id="ped115" depart="250.41" type="ped_pedestrian">
        <personTrip from="-1207347224#2" to="-598756397#0" modes="public"/>
    </person>
    <person id="ped116" depart="252.59" type="ped_pedestrian">
        <personTrip from="1196399778#0" to="1207215772#1" modes="public"/>
    </person>
    <person id="ped117" depart="254.77" type="ped_pedestrian">
        <personTrip from="-675260241#0" to="-593642479#2" modes="public"/>
    </person>
    <person id="ped118" depart="256.94" type="ped_pedestrian">
        <personTrip from="602362882#3" to="-763602937#1" modes="public"/>
    </person>
    <person id="ped119" depart="259.12" type="ped_pedestrian">
        <personTrip from="1196399774#1" to="1206423372" modes="public"/>
    </person>
    <person id="ped120" depart="261.30" type="ped_pedestrian">
        <personTrip from="1106611078#3" to="1196399778#1" modes="public"/>
    </person>
    <person id="ped121" depart="263.48" type="ped_pedestrian">
        <personTrip from="1107305113#0" to="826874588#1" modes="public"/>
    </person>
    <person id="ped122" depart="265.65" type="ped_pedestrian">
        <personTrip from="-598756392#2" to="1218545597#1" modes="public"/>
    </person>
    <person id="ped123" depart="267.83" type="ped_pedestrian">
        <personTrip from="-683876838#1" to="1106611076#1" modes="public"/>
    </person>
    <person id="ped124" depart="270.01" type="ped_pedestrian">
        <personTrip from="1206943183#1" to="1033167025" modes="public"/>
    </person>
    <person id="ped125" depart="272.19" type="ped_pedestrian">
        <personTrip from="-962179362#2" to="1267842570#1" modes="public"/>
    </person>
    <person id="ped126" depart="274.36" type="ped_pedestrian">
        <personTrip from="-1196399806" to="1107104322#3" modes="public"/>
    </person>
    <person id="ped127" depart="276.54" type="ped_pedestrian">
        <personTrip from="961919155" to="953290225#1" modes="public"/>
    </person>
    <person id="ped128" depart="278.72" type="ped_pedestrian">
        <personTrip from="-1197035532" to="-602362882#2" modes="public"/>
    </person>
    <person id="ped129" depart="280.90" type="ped_pedestrian">
        <personTrip from="-719345489#2" to="826873318#1" modes="public"/>
    </person>
    <person id="ped130" depart="283.07" type="ped_pedestrian">
        <personTrip from="601455470#1" to="601861003#1" modes="public"/>
    </person>
    <person id="ped131" depart="285.25" type="ped_pedestrian">
        <personTrip from="1106598506#9" to="-597607816#1" modes="public"/>
    </person>
    <person id="ped132" depart="287.43" type="ped_pedestrian">
        <personTrip from="597607816#0" to="1208526769#0" modes="public"/>
    </person>
    <person id="ped133" depart="289.61" type="ped_pedestrian">
        <personTrip from="1197035532" to="897399611" modes="public"/>
    </person>
    <person id="ped134" depart="291.78" type="ped_pedestrian">
        <personTrip from="1206838363#3" to="-1038271708" modes="public"/>
    </person>
    <person id="ped135" depart="293.96" type="ped_pedestrian">
        <personTrip from="597136850#7" to="1033167024#1" modes="public"/>
    </person>
    <person id="ped136" depart="296.14" type="ped_pedestrian">
        <personTrip from="1206943175#3" to="840613332" modes="public"/>
    </person>
    <person id="ped137" depart="298.32" type="ped_pedestrian">
        <personTrip from="-397993230#5" to="-480685836#1" modes="public"/>
    </person>
    <person id="ped138" depart="300.49" type="ped_pedestrian">
        <personTrip from="-1267842571#2" to="1192885696#4" modes="public"/>
    </person>
    <person id="ped139" depart="302.67" type="ped_pedestrian">
        <personTrip from="-816208527#4" to="1197061359#0" modes="public"/>
    </person>
    <person id="ped140" depart="304.85" type="ped_pedestrian">
        <personTrip from="1209295526" to="-601455463#1" modes="public"/>
    </person>
    <person id="ped141" depart="307.03" type="ped_pedestrian">
        <personTrip from="1206532589#2" to="-889984924" modes="public"/>
    </person>
    <person id="ped142" depart="309.20" type="ped_pedestrian">
        <personTrip from="1107305073" to="704648918#2" modes="public"/>
    </person>
    <person id="ped143" depart="311.38" type="ped_pedestrian">
        <personTrip from="598675476" to="-1305864716#0" modes="public"/>
    </person>
    <person id="ped144" depart="313.56" type="ped_pedestrian">
        <personTrip from="1106611079#1" to="-896442434" modes="public"/>
    </person>
    <person id="ped145" depart="315.74" type="ped_pedestrian">
        <personTrip from="-1023619577" to="220307179#0" modes="public"/>
    </person>
    <person id="ped146" depart="317.91" type="ped_pedestrian">
        <personTrip from="1206671089#1" to="-889429782#1" modes="public"/>
    </person>
    <person id="ped147" depart="320.09" type="ped_pedestrian">
        <personTrip from="1221468192#0" to="1192868606#3" modes="public"/>
    </person>
    <person id="ped148" depart="322.27" type="ped_pedestrian">
        <personTrip from="1106611082#2" to="-1040490063#1" modes="public"/>
    </person>
    <person id="ped149" depart="324.45" type="ped_pedestrian">
        <personTrip from="-1201936441" to="617320299#1" modes="public"/>
    </person>
    <person id="ped150" depart="326.62" type="ped_pedestrian">
        <personTrip from="684504392" to="1171089854#4" modes="public"/>
    </person>
    <person id="ped151" depart="328.80" type="ped_pedestrian">
        <personTrip from="597619414" to="1196399774#1" modes="public"/>
    </person>
    <person id="ped152" depart="330.98" type="ped_pedestrian">
        <personTrip from="-593642479#8" to="-596802464#1" modes="public"/>
    </person>
    <person id="ped153" depart="333.16" type="ped_pedestrian">
        <personTrip from="-905363915#2" to="685021642#0" modes="public"/>
    </person>
    <person id="ped154" depart="335.33" type="ped_pedestrian">
        <personTrip from="596788386#1" to="598767869#2" modes="public"/>
    </person>
    <person id="ped155" depart="337.51" type="ped_pedestrian">
        <personTrip from="683876839#2" to="-601578008#0" modes="public"/>
    </person>
    <person id="ped156" depart="339.69" type="ped_pedestrian">
        <personTrip from="-685021642#1" to="-374515770#2" modes="public"/>
    </person>
    <person id="ped157" depart="341.87" type="ped_pedestrian">
        <personTrip from="397993228#2" to="617320300#1" modes="public"/>
    </person>
    <person id="ped158" depart="344.04" type="ped_pedestrian">
        <personTrip from="1106598534#5" to="1206423374#1" modes="public"/>
    </person>
    <person id="ped159" depart="346.22" type="ped_pedestrian">
        <personTrip from="-596802483#0" to="816208527#0" modes="public"/>
    </person>
    <person id="ped160" depart="348.40" type="ped_pedestrian">
        <personTrip from="598756401#1" to="889984971" modes="public"/>
    </person>
    <person id="ped161" depart="350.58" type="ped_pedestrian">
        <personTrip from="597126921#3" to="602362882#1" modes="public"/>
    </person>
    <person id="ped162" depart="352.75" type="ped_pedestrian">
        <personTrip from="-1078434622" to="1237202840" modes="public"/>
    </person>
    <person id="ped163" depart="354.93" type="ped_pedestrian">
        <personTrip from="1040758930#1" to="816208527#3" modes="public"/>
    </person>
    <person id="ped164" depart="357.11" type="ped_pedestrian">
        <personTrip from="596802464#0" to="598767881" modes="public"/>
    </person>
    <person id="ped165" depart="359.29" type="ped_pedestrian">
        <personTrip from="597126921#3" to="-889984954#0" modes="public"/>
    </person>
    <person id="ped166" depart="361.46" type="ped_pedestrian">
        <personTrip from="465069895#3" to="-459315212#0" modes="public"/>
    </person>
    <person id="ped167" depart="363.64" type="ped_pedestrian">
        <personTrip from="598767877" to="598756413#1" modes="public"/>
    </person>
    <person id="ped168" depart="365.82" type="ped_pedestrian">
        <personTrip from="-601455475" to="597555254#0" modes="public"/>
    </person>
    <person id="ped169" depart="368.00" type="ped_pedestrian">
        <personTrip from="1106791067#1" to="1040497713" modes="public"/>
    </person>
    <person id="ped170" depart="370.17" type="ped_pedestrian">
        <personTrip from="593642479#7" to="-684726132#0" modes="public"/>
    </person>
    <person id="ped171" depart="372.35" type="ped_pedestrian">
        <personTrip from="-1076308913" to="-598767869#2" modes="public"/>
    </person>
    <person id="ped172" depart="374.53" type="ped_pedestrian">
        <personTrip from="1040492297" to="598767886" modes="public"/>
    </person>
    <person id="ped173" depart="376.70" type="ped_pedestrian">
        <personTrip from="877859660#3" to="-897399611" modes="public"/>
    </person>
    <person id="ped174" depart="378.88" type="ped_pedestrian">
        <personTrip from="1206671093" to="1106611078#12" modes="public"/>
    </person>
    <person id="ped175" depart="381.06" type="ped_pedestrian">
        <personTrip from="889984973#6" to="1130782598#0" modes="public"/>
    </person>
    <person id="ped176" depart="383.24" type="ped_pedestrian">
        <personTrip from="826873323#0" to="-465069898#3" modes="public"/>
    </person>
    <person id="ped177" depart="385.41" type="ped_pedestrian">
        <personTrip from="889429777" to="-598686815#2" modes="public"/>
    </person>
    <person id="ped178" depart="387.59" type="ped_pedestrian">
        <personTrip from="874039753#0" to="-889984941" modes="public"/>
    </person>
    <person id="ped179" depart="389.77" type="ped_pedestrian">
        <personTrip from="-1267842573" to="1106791064#7" modes="public"/>
    </person>
    <person id="ped180" depart="391.95" type="ped_pedestrian">
        <personTrip from="1218545597#3" to="1042541615" modes="public"/>
    </person>
    <person id="ped181" depart="394.12" type="ped_pedestrian">
        <personTrip from="1196812864#1" to="1107666406#2" modes="public"/>
    </person>
    <person id="ped182" depart="396.30" type="ped_pedestrian">
        <personTrip from="1106598514#5" to="1196399767#1" modes="public"/>
    </person>
    <person id="ped183" depart="398.48" type="ped_pedestrian">
        <personTrip from="-708546427#0" to="1211217604#1" modes="public"/>
    </person>
    <person id="ped184" depart="400.66" type="ped_pedestrian">
        <personTrip from="-1023619573#1" to="763602937#1" modes="public"/>
    </person>
    <person id="ped185" depart="402.83" type="ped_pedestrian">
        <personTrip from="1110152446" to="1218545599" modes="public"/>
    </person>
    <person id="ped186" depart="405.01" type="ped_pedestrian">
        <personTrip from="1221468193#0" to="1207141790" modes="public"/>
    </person>
    <person id="ped187" depart="407.19" type="ped_pedestrian">
        <personTrip from="1106598506#0" to="-1221468192#1" modes="public"/>
    </person>
    <person id="ped188" depart="409.37" type="ped_pedestrian">
        <personTrip from="1206943176#1" to="1087829912#1" modes="public"/>
    </person>
    <person id="ped189" depart="411.54" type="ped_pedestrian">
        <personTrip from="-953294058" to="598686815#1" modes="public"/>
    </person>
    <person id="ped190" depart="413.72" type="ped_pedestrian">
        <personTrip from="1211217606#1" to="1038271708" modes="public"/>
    </person>
    <person id="ped191" depart="415.90" type="ped_pedestrian">
        <personTrip from="-905363915#6" to="1106611080#1" modes="public"/>
    </person>
    <person id="ped192" depart="418.08" type="ped_pedestrian">
        <personTrip from="1106598532#2" to="1023619586#1" modes="public"/>
    </person>