<?xml version="1.0" encoding="UTF-8"?>

<!-- generated on 2024-09-06 19:06:23.977524 by osmWebWizard.py v1_20_0+0002-343658e7c64
<configuration>
    <net-file value="C:\Users\legion\2024-09-06-19-06-13\osm.net.xml.gz"/>
    <output-trip-file value="C:\Users\legion\2024-09-06-19-06-13\osm.motorcycle.trips.xml"/>
    <route-file value="C:\Users\legion\2024-09-06-19-06-13\osm.motorcycle.rou.xml"/>
    <prefix value="motorcycle"/>
    <trip-attributes value="departLane=&quot;best&quot;"/>
    <fringe-start-attributes value="departSpeed=&quot;max&quot;"/>
    <vehicle-class value="motorcycle"/>
    <fringe-factor value="8"/>
    <vclass value="motorcycle"/>
    <via-edge-types value="highway.motorway,highway.motorway_link,highway.trunk_link,highway.primary_link,highway.secondary_link,highway.tertiary_link"/>
    <max-distance value="1200.0"/>
    <remove-loops value="True"/>
    <validate value="True"/>
    <insertion-density value="200.0"/>
</configuration>
-->

<!-- generated on 2024-09-06 19:06:23 by Eclipse SUMO duarouter Version 1.20.0
<configuration xmlns:xsi="http://www.w3.org/2001/XMLSchema-instance" xsi:noNamespaceSchemaLocation="http://sumo.dlr.de/xsd/duarouterConfiguration.xsd">

    <input>
        <net-file value="C:\Users\legion\2024-09-06-19-06-13\osm.net.xml.gz"/>
        <route-files value="C:\Users\legion\2024-09-06-19-06-13\osm.motorcycle.trips.xml"/>
    </input>

    <output>
        <output-file value="C:\Users\legion\2024-09-06-19-06-13\osm.motorcycle.trips.xml.tmp"/>
        <alternatives-output value="NUL"/>
        <write-trips value="true"/>
    </output>

    <processing>
        <remove-loops value="true"/>
    </processing>

    <time>
        <begin value="0.0"/>
        <end value="3600.0"/>
    </time>

    <report>
        <no-warnings value="true"/>
        <ignore-errors value="true"/>
        <no-step-log value="true"/>
    </report>

</configuration>
-->

<routes xmlns:xsi="http://www.w3.org/2001/XMLSchema-instance" xsi:noNamespaceSchemaLocation="http://sumo.dlr.de/xsd/routes_file.xsd">
    <vType id="motorcycle_motorcycle" vClass="motorcycle"/>
    <trip id="motorcycle0" type="motorcycle_motorcycle" depart="0.00" departLane="best" from="-1308543779#1" to="-1136650312#2"/>
    <trip id="motorcycle1" type="motorcycle_motorcycle" depart="2.56" departLane="best" from="156006452#1" to="-722894415#0"/>
    <trip id="motorcycle2" type="motorcycle_motorcycle" depart="5.13" departLane="best" from="-29313248#1" to="28192352#3"/>
    <trip id="motorcycle3" type="motorcycle_motorcycle" depart="7.69" departLane="best" departSpeed="max" from="722894415#0" to="-1148119572#6"/>
    <trip id="motorcycle4" type="motorcycle_motorcycle" depart="10.25" departLane="best" departSpeed="max" from="-707157542#3" to="-1148119571#0"/>
    <trip id="motorcycle5" type="motorcycle_motorcycle" depart="12.82" departLane="best" from="1308543779#4" to="1308543779#5"/>
    <trip id="motorcycle6" type="motorcycle_motorcycle" depart="15.38" departLane="best" departSpeed="max" from="-11007689#1" to="600582038#4"/>
    <trip id="motorcycle7" type="motorcycle_motorcycle" depart="17.95" departLane="best" from="-1308543779#3" to="136557832"/>
    <trip id="motorcycle8" type="motorcycle_motorcycle" depart="20.51" departLane="best" from="-1308543779#4" to="-156006452#0"/>
    <trip id="motorcycle9" type="motorcycle_motorcycle" depart="23.07" departLane="best" from="709360979#1" to="1136607494"/>
    <trip id="motorcycle11" type="motorcycle_motorcycle" depart="28.20" departLane="best" from="-29313248#0" to="-156006452#1"/>
    <trip id="motorcycle12" type="motorcycle_motorcycle" depart="30.76" departLane="best" from="945322256#5" to="-1136650312#2"/>
    <trip id="motorcycle13" type="motorcycle_motorcycle" depart="33.33" departLane="best" from="1148119571#5" to="1148119572#8"/>
    <trip id="motorcycle15" type="motorcycle_motorcycle" depart="38.45" departLane="best" from="-707157542#2" to="600582038#1"/>
    <trip id="motorcycle16" type="motorcycle_motorcycle" depart="41.02" departLane="best" from="1136650312#2" to="945322275#6"/>
    <trip id="motorcycle19" type="motorcycle_motorcycle" depart="48.71" departLane="best" from="711085009" to="136557833"/>
    <trip id="motorcycle22" type="motorcycle_motorcycle" depart="56.40" departLane="best" from="1148119571#2" to="-722894415#0"/>
    <trip id="motorcycle24" type="motorcycle_motorcycle" depart="61.53" departLane="best" from="1216451373#1" to="1148119571#5"/>
    <trip id="motorcycle26" type="motorcycle_motorcycle" depart="66.65" departLane="best" from="-136525920" to="945322275#3"/>
    <trip id="motorcycle28" type="motorcycle_motorcycle" depart="71.78" departLane="best" departSpeed="max" from="-1216159883" to="600582038#1"/>
    <trip id="motorcycle29" type="motorcycle_motorcycle" depart="74.34" departLane="best" departSpeed="max" from="-1216159883" to="1148119572#2"/>
    <trip id="motorcycle31" type="motorcycle_motorcycle" depart="79.47" departLane="best" from="1148119571#3" to="28192352#5"/>
    <trip id="motorcycle33" type="motorcycle_motorcycle" depart="84.60" departLane="best" departSpeed="max" from="-1308543779#5" to="-1148119571#1"/>
    <trip id="motorcycle35" type="motorcycle_motorcycle" depart="89.73" departLane="best" from="-1308543779#2" to="945322275#0"/>
    <trip id="motorcycle37" type="motorcycle_motorcycle" depart="94.85" departLane="best" from="-1308543779#4" to="-1148119572#5"/>
    <trip id="motorcycle38" type="motorcycle_motorcycle" depart="97.42" departLane="best" from="890573911" to="1216159883"/>
    <trip id="motorcycle39" type="motorcycle_motorcycle" depart="99.98" departLane="best" from="136525920" to="-722894415#0"/>
    <trip id="motorcycle40" type="motorcycle_motorcycle" depart="102.54" departLane="best" from="-1148119571#4" to="-890573911"/>
    <trip id="motorcycle41" type="motorcycle_motorcycle" depart="105.11" departLane="best" from="-1148119572#2" to="711085008#1"/>
    <trip id="motorcycle43" type="motorcycle_motorcycle" depart="110.23" departLane="best" from="962177670" to="1308543779#5"/>
    <trip id="motorcycle44" type="motorcycle_motorcycle" depart="112.80" departLane="best" from="-1148119571#5" to="-1148119571#4"/>
    <trip id="motorcycle46" type="motorcycle_motorcycle" depart="117.92" departLane="best" from="702919616#1" to="1212985471"/>
    <trip id="motorcycle47" type="motorcycle_motorcycle" depart="120.49" departLane="best" from="1136650312#2" to="1148119572#2"/>
    <trip id="motorcycle48" type="motorcycle_motorcycle" depart="123.05" departLane="best" from="962177670" to="1308543779#5"/>
    <trip id="motorcycle49" type="motorcycle_motorcycle" depart="125.62" departLane="best" from="945322275#6" to="136557832"/>
    <trip id="motorcycle50" type="motorcycle_motorcycle" depart="128.18" departLane="best" departSpeed="max" from="-11007689#1" to="402400378#2"/>
    <trip id="motorcycle51" type="motorcycle_motorcycle" depart="130.74" departLane="best" from="156006452#2" to="136525920"/>
    <trip id="motorcycle53" type="motorcycle_motorcycle" depart="135.87" departLane="best" from="-1148119572#3" to="1216159883"/>
    <trip id="motorcycle54" type="motorcycle_motorcycle" depart="138.43" departLane="best" from="-709360979#1" to="945322275#2"/>
    <trip id="motorcycle55" type="motorcycle_motorcycle" depart="141.00" departLane="best" departSpeed="max" from="722894415#0" to="-890573911"/>
    <trip id="motorcycle56" type="motorcycle_motorcycle" depart="143.56" departLane="best" departSpeed="max" from="-11007689#0" to="29313248#0"/>
    <trip id="motorcycle57" type="motorcycle_motorcycle" depart="146.12" departLane="best" from="722894415#1" to="711052546#1"/>
    <trip id="motorcycle58" type="motorcycle_motorcycle" depart="148.69" departLane="best" departSpeed="max" from="-179996748" to="179996748"/>
    <trip id="motorcycle59" type="motorcycle_motorcycle" depart="151.25" departLane="best" from="-1148119572#7" to="-156006452#1"/>
    <trip id="motorcycle61" type="motorcycle_motorcycle" depart="156.38" departLane="best" from="-600582038#4" to="1308543779#5"/>
    <trip id="motorcycle62" type="motorcycle_motorcycle" depart="158.94" departLane="best" from="-11007689#0" to="-1136650312#0"/>
    <trip id="motorcycle63" type="motorcycle_motorcycle" depart="161.51" departLane="best" departSpeed="max" from="-11007689#1" to="945322256#3"/>
    <trip id="motorcycle64" type="motorcycle_motorcycle" depart="164.07" departLane="best" departSpeed="max" from="722894415#0" to="707157542#3"/>
    <trip id="motorcycle66" type="motorcycle_motorcycle" depart="169.20" departLane="best" departSpeed="max" from="722894415#0" to="945322275#1"/>
    <trip id="motorcycle67" type="motorcycle_motorcycle" depart="171.76" departLane="best" from="1148119571#3" to="1308543779#3"/>
    <trip id="motorcycle70" type="motorcycle_motorcycle" depart="179.45" departLane="best" from="947077275#1" to="136557833"/>
    <trip id="motorcycle71" type="motorcycle_motorcycle" depart="182.01" departLane="best" from="-136525920" to="711052546#1"/>
    <trip id="motorcycle72" type="motorcycle_motorcycle" depart="184.58" departLane="best" departSpeed="max" from="-707157542#3" to="-709360979#1"/>
    <trip id="motorcycle73" type="motorcycle_motorcycle" depart="187.14" departLane="best" from="-1136650312#2" to="600582038#1"/>
    <trip id="motorcycle76" type="motorcycle_motorcycle" depart="194.83" departLane="best" departSpeed="max" from="-707157542#3" to="1308543779#5"/>
    <trip id="motorcycle77" type="motorcycle_motorcycle" depart="197.40" departLane="best" from="1148119572#4" to="-722894415#0"/>
    <trip id="motorcycle79" type="motorcycle_motorcycle" depart="202.52" departLane="best" departSpeed="max" from="-1308543779#5" to="-722894415#0"/>
    <trip id="motorcycle81" type="motorcycle_motorcycle" depart="207.65" departLane="best" departSpeed="max" from="-1308543779#5" to="709665785"/>
    <trip id="motorcycle82" type="motorcycle_motorcycle" depart="210.21" departLane="best" from="711085009" to="1148119572#3"/>
    <trip id="motorcycle83" type="motorcycle_motorcycle" depart="212.78" departLane="best" departSpeed="max" from="-1308543779#5" to="28192352#2"/>
    <trip id="motorcycle84" type="motorcycle_motorcycle" depart="215.34" departLane="best" from="-1308543779#3" to="-1308543779#3"/>
    <trip id="motorcycle85" type="motorcycle_motorcycle" depart="217.90" departLane="best" from="945322256#5" to="136557833"/>
    <trip id="motorcycle86" type="motorcycle_motorcycle" depart="220.47" departLane="best" from="947077275#0" to="702919616#0"/>
    <trip id="motorcycle87" type="motorcycle_motorcycle" depart="223.03" departLane="best" from="-707157542#2" to="600582038#1"/>
    <trip id="motorcycle88" type="motorcycle_motorcycle" depart="225.60" departLane="best" from="-1148119572#0" to="1216159883"/>
    <trip id="motorcycle89" type="motorcycle_motorcycle" depart="228.16" departLane="best" departSpeed="max" from="-707157542#3" to="1216451373#0"/>
    <trip id="motorcycle90" type="motorcycle_motorcycle" depart="230.72" departLane="best" from="-29313248#0" to="28192352#3"/>
    <trip id="motorcycle91" type="motorcycle_motorcycle" depart="233.29" departLane="best" from="947077275#1" to="1148119572#8"/>
    <trip id="motorcycle93" type="motorcycle_motorcycle" depart="238.41" departLane="best" from="711085009" to="-722894415#0"/>
    <trip id="motorcycle94" type="motorcycle_motorcycle" depart="240.98" departLane="best" departSpeed="max" from="-1216159883" to="1216159883"/>
    <trip id="motorcycle96" type="motorcycle_motorcycle" depart="246.10" departLane="best" departSpeed="max" from="-1308543779#5" to="945322256#2"/>
    <trip id="motorcycle97" type="motorcycle_motorcycle" depart="248.67" departLane="best" departSpeed="max" from="-707157542#3" to="136557832"/>
    <trip id="motorcycle98" type="motorcycle_motorcycle" depart="251.23" departLane="best" from="1148119571#1" to="1148119571#5"/>
    <trip id="motorcycle99" type="motorcycle_motorcycle" depart="253.79" departLane="best" from="962177670" to="707157542#3"/>
    <trip id="motorcycle100" type="motorcycle_motorcycle" depart="256.36" departLane="best" from="945322275#5" to="945322256#3"/>
    <trip id="motorcycle102" type="motorcycle_motorcycle" depart="261.49" departLane="best" departSpeed="max" from="-11007689#0" to="-709360979#2"/>
    <trip id="motorcycle105" type="motorcycle_motorcycle" depart="269.18" departLane="best" from="-136525920" to="702919616#0"/>
    <trip id="motorcycle106" type="motorcycle_motorcycle" depart="271.74" departLane="best" from="-709360979#2" to="1212985471"/>
    <trip id="motorcycle107" type="motorcycle_motorcycle" depart="274.30" departLane="best" from="945322256#5" to="962177670"/>
    <trip id="motorcycle108" type="motorcycle_motorcycle" depart="276.87" departLane="best" from="1148119571#3" to="402400378#2"/>
    <trip id="motorcycle110" type="motorcycle_motorcycle" depart="281.99" departLane="best" from="945322275#5" to="136557833"/>
    <trip id="motorcycle112" type="motorcycle_motorcycle" depart="287.12" departLane="best" from="1136650312#1" to="136557833"/>
    <trip id="motorcycle113" type="motorcycle_motorcycle" depart="289.68" departLane="best" departSpeed="max" from="-11007689#0" to="709360979#1"/>
    <trip id="motorcycle114" type="motorcycle_motorcycle" depart="292.25" departLane="best" departSpeed="max" from="-1216159883" to="945322275#4"/>
    <trip id="motorcycle115" type="motorcycle_motorcycle" depart="294.81" departLane="best" from="-1148119571#2" to="29313248#1"/>
    <trip id="motorcycle116" type="motorcycle_motorcycle" depart="297.38" departLane="best" from="-1148119572#4" to="28192352#3"/>
    <trip id="motorcycle117" type="motorcycle_motorcycle" depart="299.94" departLane="best" departSpeed="max" from="-1308543779#5" to="-1216451373#1"/>
    <trip id="motorcycle118" type="motorcycle_motorcycle" depart="302.50" departLane="best" departSpeed="max" from="722894415#0" to="-722894415#0"/>
    <trip id="motorcycle120" type="motorcycle_motorcycle" depart="307.63" departLane="best" departSpeed="max" from="-707157542#3" to="136557833"/>
    <trip id="motorcycle121" type="motorcycle_motorcycle" depart="310.19" departLane="best" from="-1136607494" to="945322275#3"/>
    <trip id="motorcycle122" type="motorcycle_motorcycle" depart="312.76" departLane="best" from="-1308543779#1" to="402400378#1"/>
    <trip id="motorcycle123" type="motorcycle_motorcycle" depart="315.32" departLane="best" departSpeed="max" from="-1308543779#5" to="-1148119572#5"/>
    <trip id="motorcycle126" type="motorcycle_motorcycle" depart="323.01" departLane="best" from="-1148119571#1" to="1216159883"/>
    <trip id="motorcycle127" type="motorcycle_motorcycle" depart="325.58" departLane="best" from="962177670" to="962177670"/>
    <trip id="motorcycle128" type="motorcycle_motorcycle" depart="328.14" departLane="best" from="-1148119571#1" to="-709360979#2"/>
    <trip id="motorcycle129" type="motorcycle_motorcycle" depart="330.70" departLane="best" from="-136525920" to="945322256#4"/>
    <trip id="motorcycle130" type="motorcycle_motorcycle" depart="333.27" departLane="best" departSpeed="max" from="722894415#0" to="711052548#1"/>
    <trip id="motorcycle133" type="motorcycle_motorcycle" depart="340.96" departLane="best" from="1148119572#8" to="962177669#0"/>
    <trip id="motorcycle134" type="motorcycle_motorcycle" depart="343.52" departLane="best" from="-1308543779#4" to="1136607494"/>
    <trip id="motorcycle136" type="motorcycle_motorcycle" depart="348.65" departLane="best" from="136557832" to="945322275#3"/>
    <trip id="motorcycle137" type="motorcycle_motorcycle" depart="351.21" departLane="best" from="-1148119572#7" to="-1216451373#0"/>
    <trip id="motorcycle138" type="motorcycle_motorcycle" depart="353.77" departLane="best" from="-1148119572#2" to="136557833"/>
    <trip id="motorcycle141" type="motorcycle_motorcycle" depart="361.47" departLane="best" from="-1216451373#1" to="-890573911"/>
    <trip id="motorcycle142" type="motorcycle_motorcycle" depart="364.03" departLane="best" departSpeed="max" from="-11007689#0" to="709665785"/>
    <trip id="motorcycle144" type="motorcycle_motorcycle" depart="369.16" departLane="best" departSpeed="max" from="-707157542#3" to="-947077275#1"/>
    <trip id="motorcycle146" type="motorcycle_motorcycle" depart="374.28" departLane="best" from="-1308543779#1" to="-722894415#1"/>
    <trip id="motorcycle147" type="motorcycle_motorcycle" depart="376.85" departLane="best" from="36869877#0" to="136557833"/>
    <trip id="motorcycle148" type="motorcycle_motorcycle" depart="379.41" departLane="best" departSpeed="max" from="-707157542#3" to="1136607494"/>
    <trip id="motorcycle149" type="motorcycle_motorcycle" depart="381.97" departLane="best" from="-1148119571#1" to="711052548#1"/>
    <trip id="motorcycle150" type="motorcycle_motorcycle" depart="384.54" departLane="best" departSpeed="max" from="722894415#0" to="136557833"/>
    <trip id="motorcycle151" type="motorcycle_motorcycle" depart="387.10" departLane="best" from="711052548#0" to="136557833"/>
    <trip id="motorcycle152" type="motorcycle_motorcycle" depart="389.66" departLane="best" from="-1212985471" to="1308543779#2"/>
    <trip id="motorcycle154" type="motorcycle_motorcycle" depart="394.79" departLane="best" from="702919616#2" to="136557832"/>
    <trip id="motorcycle155" type="motorcycle_motorcycle" depart="397.36" departLane="best" departSpeed="max" from="722894415#0" to="-709360979#1"/>
    <trip id="motorcycle156" type="motorcycle_motorcycle" depart="399.92" departLane="best" departSpeed="max" from="-1308543779#5" to="1148119573#0"/>
    <trip id="motorcycle157" type="motorcycle_motorcycle" depart="402.48" departLane="best" from="-600582038#4" to="711064567"/>
    <trip id="motorcycle159" type="motorcycle_motorcycle" depart="407.61" departLane="best" departSpeed="max" from="-1216159883" to="945322256#4"/>
    <trip id="motorcycle160" type="motorcycle_motorcycle" depart="410.17" departLane="best" from="711085010" to="-947077275#0"/>
    <trip id="motorcycle161" type="motorcycle_motorcycle" depart="412.74" departLane="best" from="709360979#1" to="711052548#1"/>
    <trip id="motorcycle162" type="motorcycle_motorcycle" depart="415.30" departLane="best" departSpeed="max" from="-11007689#1" to="600582038#3"/>
    <trip id="motorcycle165" type="motorcycle_motorcycle" depart="422.99" departLane="best" from="709360979#1" to="-890573911"/>
    <trip id="motorcycle166" type="motorcycle_motorcycle" depart="425.55" departLane="best" from="702919616#0" to="1212985471"/>
    <trip id="motorcycle167" type="motorcycle_motorcycle" depart="428.12" departLane="best" departSpeed="max" from="722894415#0" to="709665785"/>
    <trip id="motorcycle168" type="motorcycle_motorcycle" depart="430.68" departLane="best" departSpeed="max" from="-1308543779#5" to="707157542#3"/>
    <trip id="motorcycle170" type="motorcycle_motorcycle" depart="435.81" departLane="best" from="702919616#2" to="-722894415#0"/>
    <trip id="motorcycle171" type="motorcycle_motorcycle" depart="438.37" departLane="best" departSpeed="max" from="-11007689#1" to="600582038#3"/>
    <trip id="motorcycle174" type="motorcycle_motorcycle" depart="446.06" departLane="best" from="-1308543779#2" to="-1148119572#6"/>
    <trip id="motorcycle175" type="motorcycle_motorcycle" depart="448.63" departLane="best" from="947077275#1" to="136525920"/>
    <trip id="motorcycle176" type="motorcycle_motorcycle" depart="451.19" departLane="best" from="945322256#5" to="1216451373#0"/>
    <trip id="motorcycle177" type="motorcycle_motorcycle" depart="453.75" departLane="best" from="945322275#6" to="29313248#0"/>
    <trip id="motorcycle178" type="motorcycle_motorcycle" depart="456.32" departLane="best" from="945322275#4" to="-890573911"/>
    <trip id="motorcycle179" type="motorcycle_motorcycle" depart="458.88" departLane="best" from="-1148119572#2" to="1216159883"/>
    <trip id="motorcycle181" type="motorcycle_motorcycle" depart="464.01" departLane="best" from="1148119572#7" to="1308543779#5"/>
    <trip id="motorcycle184" type="motorcycle_motorcycle" depart="471.70" departLane="best" from="-11007689#0" to="945322256#3"/>
    <trip id="motorcycle185" type="motorcycle_motorcycle" depart="474.26" departLane="best" from="1136650312#2" to="402400378#2"/>
    <trip id="motorcycle186" type="motorcycle_motorcycle" depart="476.83" departLane="best" from="36869877#0" to="28192352#2"/>
    <trip id="motorcycle188" type="motorcycle_motorcycle" depart="481.95" departLane="best" from="709665785" to="-1136650312#1"/>
    <trip id="motorcycle193" type="motorcycle_motorcycle" depart="494.77" departLane="best" from="1148119572#6" to="1212985471"/>
    <trip id="motorcycle194" type="motorcycle_motorcycle" depart="497.34" departLane="best" from="945322275#0" to="28192352#4"/>
    <trip id="motorcycle197" type="motorcycle_motorcycle" depart="505.03" departLane="best" from="11007689#0" to="11007689#1"/>
    <trip id="motorcycle198" type="motorcycle_motorcycle" depart="507.59" departLane="best" departSpeed="max" from="-707157542#3" to="136557833"/>
    <trip id="motorcycle199" type="motorcycle_motorcycle" depart="510.15" departLane="best" from="-1308543779#4" to="-1216451373#0"/>
    <trip id="motorcycle200" type="motorcycle_motorcycle" depart="512.72" departLane="best" departSpeed="max" from="-707157542#3" to="-709360979#2"/>
    <trip id="motorcycle201" type="motorcycle_motorcycle" depart="515.28" departLane="best" from="947077275#0" to="711085009"/>
    <trip id="motorcycle203" type="motorcycle_motorcycle" depart="520.41" departLane="best" from="1148119571#3" to="1308543779#5"/>
    <trip id="motorcycle204" type="motorcycle_motorcycle" depart="522.97" departLane="best" from="-1216451373#1" to="-1136650312#2"/>
    <trip id="motorcycle206" type="motorcycle_motorcycle" depart="528.10" departLane="best" from="156006452#1" to="-722894415#0"/>
    <trip id="motorcycle207" type="motorcycle_motorcycle" depart="530.66" departLane="best" from="-1216451373#1" to="-1136650312#2"/>
    <trip id="motorcycle208" type="motorcycle_motorcycle" depart="533.23" departLane="best" departSpeed="max" from="-1308543779#5" to="-1308543779#1"/>
    <trip id="motorcycle209" type="motorcycle_motorcycle" depart="535.79" departLane="best" from="711085008#0" to="1148119572#3"/>
    <trip id="motorcycle211" type="motorcycle_motorcycle" depart="540.92" departLane="best" from="1216451373#0" to="29313248#1"/>
    <trip id="motorcycle212" type="motorcycle_motorcycle" depart="543.48" departLane="best" departSpeed="max" from="-11007689#0" to="-722894415#0"/>
    <trip id="motorcycle213" type="motorcycle_motorcycle" depart="546.04" departLane="best" from="-1308543779#4" to="1136607494"/>
    <trip id="motorcycle215" type="motorcycle_motorcycle" depart="551.17" departLane="best" from="-1148119572#2" to="1216159883"/>
    <trip id="motorcycle216" type="motorcycle_motorcycle" depart="553.73" departLane="best" departSpeed="max" from="-1216159883" to="945322275#3"/>
    <trip id="motorcycle217" type="motorcycle_motorcycle" depart="556.30" departLane="best" departSpeed="max" from="-11007689#0" to="1148119571#4"/>
    <trip id="motorcycle218" type="motorcycle_motorcycle" depart="558.86" departLane="best" departSpeed="max" from="-1308543779#5" to="707157542#3"/>
    <trip id="motorcycle219" type="motorcycle_motorcycle" depart="561.42" departLane="best" from="-709360979#2" to="702919616#3"/>
    <trip id="motorcycle220" type="motorcycle_motorcycle" depart="563.99" departLane="best" from="156006452#0" to="962177669#0"/>
    <trip id="motorcycle221" type="motorcycle_motorcycle" depart="566.55" departLane="best" from="-1148119572#4" to="945322275#2"/>
    <trip id="motorcycle224" type="motorcycle_motorcycle" depart="574.24" departLane="best" from="711052546#1" to="136557833"/>
    <trip id="motorcycle226" type="motorcycle_motorcycle" depart="579.37" departLane="best" from="947077275#0" to="-722894415#1"/>
    <trip id="motorcycle229" type="motorcycle_motorcycle" depart="587.06" departLane="best" from="-1216451373#0" to="-947077275#1"/>
    <trip id="motorcycle231" type="motorcycle_motorcycle" depart="592.19" departLane="best" from="156006452#0" to="1136607494"/>
    <trip id="motorcycle232" type="motorcycle_motorcycle" depart="594.75" departLane="best" from="1136650312#2" to="1308543779#4"/>
    <trip id="motorcycle233" type="motorcycle_motorcycle" depart="597.32" departLane="best" departSpeed="max" from="-1308543779#5" to="29313248#1"/>
    <trip id="motorcycle235" type="motorcycle_motorcycle" depart="602.44" departLane="best" from="-707157542#2" to="136557832"/>
    <trip id="motorcycle236" type="motorcycle_motorcycle" depart="605.01" departLane="best" departSpeed="max" from="-707157542#3" to="-707157542#2"/>
    <trip id="motorcycle237" type="motorcycle_motorcycle" depart="607.57" departLane="best" departSpeed="max" from="-707157542#3" to="711085010"/>
    <trip id="motorcycle238" type="motorcycle_motorcycle" depart="610.13" departLane="best" from="-1148119572#2" to="29313248#1"/>
    <trip id="motorcycle242" type="motorcycle_motorcycle" depart="620.39" departLane="best" from="711085008#0" to="945322275#2"/>
    <trip id="motorcycle245" type="motorcycle_motorcycle" depart="628.08" departLane="best" from="-1308543779#4" to="-722894415#0"/>
    <trip id="motorcycle246" type="motorcycle_motorcycle" depart="630.64" departLane="best" departSpeed="max" from="-707157542#3" to="-1148119571#0"/>
    <trip id="motorcycle249" type="motorcycle_motorcycle" depart="638.33" departLane="best" from="890573911" to="1308543779#2"/>
    <trip id="motorcycle250" type="motorcycle_motorcycle" depart="640.90" departLane="best" from="-1212985471" to="1148119571#0"/>
    <trip id="motorcycle253" type="motorcycle_motorcycle" depart="648.59" departLane="best" from="-1148119572#7" to="1216159883"/>
    <trip id="motorcycle254" type="motorcycle_motorcycle" depart="651.15" departLane="best" from="-1136607494" to="1148119572#2"/>
    <trip id="motorcycle255" type="motorcycle_motorcycle" depart="653.71" departLane="best" from="-1308543779#2" to="-1136650312#0"/>
    <trip id="motorcycle257" type="motorcycle_motorcycle" depart="658.84" departLane="best" from="36869877#2" to="707157542#3"/>
    <trip id="motorcycle258" type="motorcycle_motorcycle" depart="661.40" departLane="best" departSpeed="max" from="-1308543779#5" to="-1148119572#5"/>
    <trip id="motorcycle259" type="motorcycle_motorcycle" depart="663.97" departLane="best" departSpeed="max" from="-11007689#1" to="136525920"/>
    <trip id="motorcycle260" type="motorcycle_motorcycle" depart="666.53" departLane="best" from="962177670" to="1148119571#2"/>
    <trip id="motorcycle263" type="motorcycle_motorcycle" depart="674.22" departLane="best" from="945322275#2" to="600582038#4"/>
    <trip id="motorcycle264" type="motorcycle_motorcycle" depart="676.79" departLane="best" departSpeed="max" from="-11007689#1" to="-156006452#1"/>
    <trip id="motorcycle265" type="motorcycle_motorcycle" depart="679.35" departLane="best" from="-1148119572#5" to="28192352#2"/>
    <trip id="motorcycle266" type="motorcycle_motorcycle" depart="681.91" departLane="best" from="1148119571#4" to="-722894415#0"/>
    <trip id="motorcycle269" type="motorcycle_motorcycle" depart="689.60" departLane="best" from="36869877#2" to="-1216451373#0"/>
    <trip id="motorcycle270" type="motorcycle_motorcycle" depart="692.17" departLane="best" from="711085010" to="945322275#5"/>
    <trip id="motorcycle271" type="motorcycle_motorcycle" depart="694.73" departLane="best" from="-1148119572#2" to="-1148119571#0"/>
    <trip id="motorcycle273" type="motorcycle_motorcycle" depart="699.86" departLane="best" from="945322275#3" to="-1148119572#5"/>
    <trip id="motorcycle275" type="motorcycle_motorcycle" depart="704.99" departLane="best" from="-179996742#1" to="179996748"/>
    <trip id="motorcycle277" type="motorcycle_motorcycle" depart="710.11" departLane="best" from="711085008#0" to="-156006452#2"/>
    <trip id="motorcycle278" type="motorcycle_motorcycle" depart="712.68" departLane="best" from="-1148119572#4" to="-947077275#1"/>
    <trip id="motorcycle279" type="motorcycle_motorcycle" depart="715.24" departLane="best" from="-600582038#4" to="1148119571#1"/>
    <trip id="motorcycle280" type="motorcycle_motorcycle" depart="717.80" departLane="best" departSpeed="max" from="-707157542#3" to="-1148119572#0"/>
    <trip id="motorcycle281" type="motorcycle_motorcycle" depart="720.37" departLane="best" departSpeed="max" from="-11007689#0" to="1148119571#0"/>
    <trip id="motorcycle282" type="motorcycle_motorcycle" depart="722.93" departLane="best" from="711085008#0" to="707157542#3"/>
    <trip id="motorcycle283" type="motorcycle_motorcycle" depart="725.49" departLane="best" from="-1148119572#1" to="945322275#4"/>
    <trip id="motorcycle284" type="motorcycle_motorcycle" depart="728.06" departLane="best" from="1216451373#1" to="707157542#3"/>
    <trip id="motorcycle286" type="motorcycle_motorcycle" depart="733.19" departLane="best" from="-29313248#1" to="945322275#5"/>
    <trip id="motorcycle287" type="motorcycle_motorcycle" depart="735.75" departLane="best" from="156006452#0" to="707157542#3"/>
    <trip id="motorcycle288" type="motorcycle_motorcycle" depart="738.31" departLane="best" from="1136650312#2" to="1308543779#2"/>
    <trip id="motorcycle289" type="motorcycle_motorcycle" depart="740.88" departLane="best" departSpeed="max" from="-707157542#3" to="600582038#1"/>
    <trip id="motorcycle290" type="motorcycle_motorcycle" depart="743.44" departLane="best" from="156006452#0" to="-709360979#1"/>
    <trip id="motorcycle291" type="motorcycle_motorcycle" depart="746.00" departLane="best" from="711052546#1" to="1148119572#6"/>
    <trip id="motorcycle292" type="motorcycle_motorcycle" depart="748.57" departLane="best" departSpeed="max" from="722894415#0" to="-722894415#0"/>