<?xml version="1.0" encoding="UTF-8"?>

<!-- generated on 2024-09-06 19:06:26.120734 by osmWebWizard.py v1_20_0+0002-343658e7c64
<configuration>
    <net-file value="C:\Users\legion\2024-09-06-19-06-13\osm.net.xml.gz"/>
    <output-trip-file value="C:\Users\legion\2024-09-06-19-06-13\osm.pedestrian.trips.xml"/>
    <route-file value="C:\Users\legion\2024-09-06-19-06-13\osm.pedestrian.rou.xml"/>
    <pedestrians value="True"/>
    <prefix value="ped"/>
    <vehicle-class value="pedestrian"/>
    <fringe-factor value="2"/>
    <max-distance value="2000.0"/>
    <insertion-density value="70.0"/>
</configuration>
-->

<!-- generated on 2024-09-06 19:06:25 by Eclipse SUMO duarouter Version 1.20.0
<configuration xmlns:xsi="http://www.w3.org/2001/XMLSchema-instance" xsi:noNamespaceSchemaLocation="http://sumo.dlr.de/xsd/duarouterConfiguration.xsd">

    <input>
        <net-file value="C:\Users\legion\2024-09-06-19-06-13\osm.net.xml.gz"/>
        <route-files value="C:\Users\legion\2024-09-06-19-06-13\osm.pedestrian.trips.xml"/>
    </input>

    <output>
        <output-file value="C:\Users\legion\2024-09-06-19-06-13\osm.pedestrian.rou.xml"/>
        <alternatives-output value="NUL"/>
    </output>

    <time>
        <begin value="0.0"/>
        <end value="3600.0"/>
    </time>

    <report>
        <no-warnings value="true"/>
        <ignore-errors value="true"/>
        <no-step-log value="true"/>
    </report>

</configuration>
-->

<routes xmlns:xsi="http://www.w3.org/2001/XMLSchema-instance" xsi:noNamespaceSchemaLocation="http://sumo.dlr.de/xsd/routes_file.xsd">
    <vType id="ped_pedestrian" vClass="pedestrian"/>
    <person id="ped2" type="ped_pedestrian" depart="8.62">
        <walk edges="709360974 873097730#2 873097730#1 873097730#0 858830430 1109199321 1209074830#1 1106261819#2 1106261819#1 1106261819#0 873097735#2 683855296#1"/>
    </person>
    <person id="ped4" type="ped_pedestrian" depart="17.24">
        <walk edges="1107126499#1 873097735#1 873097735#2 873097735#3 890573898#0 -600582035#2 600582035#1 890573896 -1126642085 -806263709#1 -1126642084#0 -1126642084#1"/>
    </person>
    <person id="ped5" type="ped_pedestrian" depart="21.55">
        <walk edges="-600582035#1 -600582035#2 890573898#0 873097735#3 1106261819#0 1106261819#1 1106261819#2 1209074830#2 1209074830#3 1209074830#4 1209074830#5"/>
    </person>
    <person id="ped6" type="ped_pedestrian" depart="25.86">
        <walk edges="-1040728812 -890573909#0 -890573910 -890573912 890573913#1 600582035#1 890573896 -1126642085 -806263709#1 806263709#2 -806263709#2"/>
    </person>
    <person id="ped10" type="ped_pedestrian" depart="43.10">
        <walk edges="873097730#4 873097730#3 709360974 709360973 838059688 1107305103#1 1109199320#1 702919620#2 702919620#1 702919620#0 702919619#0 702919619#1"/>
    </person>
    <person id="ped11" type="ped_pedestrian" depart="47.41">
        <walk edges="-890573899 890573899 890573907#1 -1212991374#0 -1212991374#1 -890573912 890573913#1 600582035#1 -600582035#0"/>
    </person>
    <person id="ped12" type="ped_pedestrian" depart="51.72">
        <walk edges="890573898#0 873097735#3 1106261819#0 1106261819#1"/>
    </person>
    <person id="ped13" type="ped_pedestrian" depart="56.03">
        <walk edges="-1209044000#0 873097734#1 873097734#2 873097734#3 1110686330#0 -1219936085#0 -1219936084#0"/>
    </person>
    <person id="ped16" type="ped_pedestrian" depart="68.97">
        <walk edges="1209043998#1 1209044001#1 873097734#2 849806807#2 849806808#2 1217251812#0 1217251812#1 1107126499#1 873097735#1 873097735#2 873097735#3 890573898#0 -600582035#2 890573913#1 -890573912 -1212991374#1 -1212991374#0 -890573906#0 890573905"/>
    </person>
    <person id="ped17" type="ped_pedestrian" depart="73.28">
        <walk edges="-890573913#0 890573913#1 -600582035#2 890573898#0 873097735#3 873097735#2 873097735#1 1107126499#1 1217251812#1 1217251812#0 849806808#2 849806807#2 873097734#3 1110686330#0 -1219936085#0 1219936084#1"/>
    </person>
    <person id="ped21" type="ped_pedestrian" depart="90.52">
        <walk edges="-601455486 1107305087#0 1107305087#1 1107305089#0 1107305089#1 1107305085#1 1109199320#1 702919620#2 702919620#1 702919620#0 702919619#0 702919619#1 873097735#4 890573898#0 -600582035#2 890573913#1 -890573912"/>
    </person>
    <person id="ped31" type="ped_pedestrian" depart="133.62">
        <walk edges="1209074830#3 1209074830#2 1209074830#1 1109199321 858830430 873097730#0 858830428 702919617#0"/>
    </person>
    <person id="ped32" type="ped_pedestrian" depart="137.93">
        <walk edges="873097733#4 873097733#3 873097733#2 849806807#0 849806808#0 1209074830#3 1209074830#2 1209074830#1 1109199321 858830430 873097730#0 873097730#1"/>
    </person>
    <person id="ped33" type="ped_pedestrian" depart="142.24">
        <walk edges="-601455486 1107305087#0 1107305087#1 1107305089#0 1107305089#1 1107305085#1 1109199320#1 702919620#2 702919620#1 702919620#0 702919619#0 702919619#1 873097735#4 890573898#0 -600582035#2 600582035#1 890573896 -1126642085"/>
    </person>
    <person id="ped35" type="ped_pedestrian" depart="150.86">
        <walk edges="-600582033 -1126642084#0 -806263709#1 -1126642085 890573896 600582035#1 890573913#1 -890573912 -1212991374#1 -1212991374#0 -890573906#0 890573894"/>
    </person>
    <person id="ped36" type="ped_pedestrian" depart="155.17">
        <walk edges="873097735#4 890573898#0 -600582035#2 890573913#1 -890573912 -890573910 -890573909#0 1040728812"/>
    </person>
    <person id="ped37" type="ped_pedestrian" depart="159.48">
        <walk edges="1308543778 -1219690215#0 873097733#2 849806807#0 1217251812#1 1107126499#1 873097735#1 873097735#2 873097735#3 873097735#4 702919619#1 702919619#0 702919620#0 702919620#1 702919620#2 1109199320#1 1107305085#1 1107305089#1"/>
    </person>
    <person id="ped40" type="ped_pedestrian" depart="172.41">
        <walk edges="1209074830#4 1209074830#3 1209074830#2 1106261819#2 1106261819#1 1106261819#0 873097735#3 890573898#0 -600582035#2 890573913#1 -890573912 -1212991374#1 -1212991374#0 890573907#1 890573899 -890573899"/>
    </person>
    <person id="ped43" type="ped_pedestrian" depart="185.34">
        <walk edges="890573913#1 -600582035#2 890573898#0 873097735#3 1106261819#0 1106261819#1 1106261819#2 1209074830#2 1209074830#3 1209074830#4 1209074830#5"/>
    </person>
    <person id="ped45" type="ped_pedestrian" depart="193.97">
        <walk edges="-1212991374#0 -1212991374#1 -890573912 890573913#1 -600582035#2 890573898#0 873097735#3 873097735#2 873097735#1 1107126499#1 1217251812#1 849806807#0 873097733#2 -1219690215#0 1308543778"/>
    </person>
    <person id="ped46" type="ped_pedestrian" depart="198.28">
        <walk edges="873097730#1 873097730#0 858830430 1109199321 1209074830#1 1106261819#2 1106261819#1 1106261819#0 873097735#2 873097735#1 1107126499#1 1217251812#1 1217251812#0 849806808#2 849806807#2 873097734#3 1110686330#0"/>
    </person>
    <person id="ped49" type="ped_pedestrian" depart="211.21">
        <walk edges="890573904 890573905 -890573906#0 -1212991374#0 -1212991374#1 -890573912 890573913#1 -600582035#2 890573898#0 873097735#4 873097735#5"/>
    </person>
    <person id="ped53" type="ped_pedestrian" depart="228.45">
        <walk edges="-1212991374#1 -890573912 890573913#1 600582035#1 890573896 1126642085"/>
    </person>
    <person id="ped54" type="ped_pedestrian" depart="232.76">
        <walk edges="1107305087#0 1107305087#1 1107305089#0 1107305089#1 1107305085#1 1109199320#1 702919620#2 702919620#1 702919620#0 702919619#0 702919619#1 873097735#4 890573898#0 -600582035#2 890573913#1 -890573912 -1212991374#1 -1212991374#0 890573907#1 890573899"/>
    </person>
    <person id="ped56" type="ped_pedestrian" depart="241.38">
        <walk edges="1110686330#1 1110686330#0 873097734#3 849806807#2 849806808#2 1217251812#0 1217251812#1 1107126499#1 683855298#1 -683855298#1"/>
    </person>
    <person id="ped59" type="ped_pedestrian" depart="254.31">
        <walk edges="1219936084#0 -1219936085#0 1110686330#0 873097734#3 873097734#2 873097734#1 873097734#0 -237322567#1"/>
    </person>
    <person id="ped60" type="ped_pedestrian" depart="258.62">
        <walk edges="849806807#0 873097733#2 873097733#3 873097733#4 1219438151#0"/>
    </person>
    <person id="ped64" type="ped_pedestrian" depart="275.86">
        <walk edges="873097735#5 873097735#4 873097735#3 873097735#2 873097735#1 1107126499#1 1217251812#1 1217251812#0 849806808#2 849806807#2 873097734#2 873097734#1"/>
    </person>
    <person id="ped66" type="ped_pedestrian" depart="284.48">
        <walk edges="873097735#5 873097735#4 890573898#0"/>
    </person>
    <person id="ped69" type="ped_pedestrian" depart="297.41">
        <walk edges="849806807#0 849806808#0 1209074830#3 1209074830#2 1209074830#1 -1308540803#0"/>
    </person>
    <person id="ped70" type="ped_pedestrian" depart="301.72">
        <walk edges="1107305103#1 1109199320#1 702919620#2 702919620#1 702919620#0 702919619#0 702919619#1 873097735#4 873097735#3 873097735#2 873097735#1 1107126499#1 1217251812#1 849806807#0 873097733#2 1219690215#0"/>
    </person>
    <person id="ped71" type="ped_pedestrian" depart="306.03">
        <walk edges="-806263709#2 806263709#2 -806263709#1 -1126642085 890573896 600582035#1 -600582035#2 890573898#0 873097735#4 873097735#5 890197308#0 890197308#1"/>
    </person>
    <person id="ped75" type="ped_pedestrian" depart="323.28">
        <walk edges="890573913#0 -890573913#0 890573913#1 600582035#2"/>
    </person>
    <person id="ped76" type="ped_pedestrian" depart="327.59">
        <walk edges="1107305084#1 1107305084#0 890197308#0 873097735#5 873097735#4 873097735#3 1106261819#0 1106261819#1 1106261819#2 1209074830#2 1209074830#3 1209074830#4 1209074830#5 1209074831#1"/>
    </person>
    <person id="ped82" type="ped_pedestrian" depart="353.45">
        <walk edges="873097734#3 873097734#2 1209044001#1 -1209044002"/>
    </person>
    <person id="ped83" type="ped_pedestrian" depart="357.76">
        <walk edges="-683638816#3 683638816#3"/>
    </person>
    <person id="ped84" type="ped_pedestrian" depart="362.07">
        <walk edges="-600582033 -1126642084#0 -806263709#1 -1126642085 890573896 600582035#1 -600582035#2 890573898#0 873097735#3 1106261819#0 1106261819#1 1106261819#2 1209074830#2 -1308543772#1"/>
    </person>
    <person id="ped85" type="ped_pedestrian" depart="366.38">
        <walk edges="890573878#2 -1243075885#0 1243075886"/>
    </person>
    <person id="ped86" type="ped_pedestrian" depart="370.69">
        <walk edges="1107305103#1 838059688 709360973 709360974 873097730#3"/>
    </person>
    <person id="ped88" type="ped_pedestrian" depart="379.31">
        <walk edges="-1209044001#0 873097734#2 849806807#2 849806808#2 1217251812#0 1217251812#1 1107126499#1 873097735#1 873097735#2 873097735#3 890573898#0 -600582035#2 600582035#1 890573896 -1126642085 -806263709#1 -1126642084#0 1126642084#1"/>
    </person>
    <person id="ped90" type="ped_pedestrian" depart="387.93">
        <walk edges="702919620#2 702919620#1 702919620#0 702919619#0 702919619#1 873097735#4 873097735#3 873097735#2 683855296#1"/>
    </person>
    <person id="ped91" type="ped_pedestrian" depart="392.24">
        <walk edges="890573909#0 -890573910 -890573912 890573913#1 -600582035#2 890573898#0 873097735#3 873097735#2 873097735#1 1107126499#1 1217251812#1 1217251812#0 849806808#2 849806807#2 873097734#3 1110686330#0 -1219936085#0 -1219936084#0"/>
    </person>
    <person id="ped95" type="ped_pedestrian" depart="409.48">
        <walk edges="1107126499#1 873097735#1 873097735#2 873097735#3 890573898#0 -600582035#2 890573913#1 -890573912 -1212991374#1 -1212991374#0 -890573907#1"/>
    </person>
    <person id="ped97" type="ped_pedestrian" depart="418.10">
        <walk edges="1107305085#0 1107305085#1 1109199320#1 702919620#2 702919620#1 702919620#0 702919619#0 702919619#1 873097735#5"/>
    </person>
    <person id="ped100" type="ped_pedestrian" depart="431.03">
        <walk edges="890573903 890573905 -890573906#0 -1212991374#0 -1212991374#1 -890573912 890573913#1 -600582035#2 890573898#0 873097735#4 702919619#1 702919619#0 702919617#1 702919617#0 858830428 873097730#0 858830430 1109199321 -1308540803#0 890573879"/>
    </person>
    <person id="ped103" type="ped_pedestrian" depart="443.97">
        <walk edges="1057491080 -1057491079#1 -1136880669"/>
    </person>
    <person id="ped104" type="ped_pedestrian" depart="448.28">
        <walk edges="-890573913#0 -890573912 -890573910 890573909#0"/>
    </person>
    <person id="ped105" type="ped_pedestrian" depart="452.59">
        <walk edges="-806263709#2 806263709#2 -806263709#1 -1126642085 890573896 600582035#1 -600582035#2 890573898#0 873097735#4 702919619#1 702919619#0 702919620#0 702919620#1 702919620#2 1109199320#1 1107305103#1 838059688 709360973 709360974 873097730#3"/>
    </person>
    <person id="ped106" type="ped_pedestrian" depart="456.90">
        <walk edges="1107305087#1 1107305089#0 1107305089#1 1107305085#1 1109199320#1 702919620#2 702919620#1 702919620#0 702919619#0 702919619#1 873097735#4 873097735#3 873097735#2 873097735#1 1107126499#1 1217251812#1 1217251812#0 849806808#2 849806807#2 873097734#3 1110686330#0"/>
    </person>
    <person id="ped107" type="ped_pedestrian" depart="461.21">
        <walk edges="890573898#0 -600582035#2 890573913#1 -890573913#0 890573913#0"/>
    </person>
    <person id="ped108" type="ped_pedestrian" depart="465.52">
        <walk edges="1209074830#2 1209074830#1 1109199321 858830430 873097730#0 873097730#1 873097730#2 709360974"/>
    </person>
    <person id="ped111" type="ped_pedestrian" depart="478.45">
        <walk edges="1209044001#1 873097734#2 849806807#2 849806807#0"/>
    </person>
    <person id="ped113" type="ped_pedestrian" depart="487.07">
        <walk edges="1126642084#0 -806263709#1 -1126642085 890573896 600582035#1 -600582035#2 890573898#0 873097735#3"/>
    </person>
    <person id="ped116" type="ped_pedestrian" depart="500.00">
        <walk edges="1217251812#1 1107126499#1 873097735#1 683855296#1"/>
    </person>
    <person id="ped122" type="ped_pedestrian" depart="525.86">
        <walk edges="-237322567#0 873097734#0 873097734#1 873097734#2 849806807#2 849806808#2 1217251812#0 1217251812#1 1107126499#1 873097735#1 873097735#2 873097735#3 873097735#4 702919619#1 702919619#0 702919620#0 702919620#1 702919620#2 1109199320#1 1107305103#1 838059688 709360973"/>
    </person>
    <person id="ped126" type="ped_pedestrian" depart="543.10">
        <walk edges="-1136870140 1136870139#1 1136870139#2"/>
    </person>
    <person id="ped131" type="ped_pedestrian" depart="564.66">
        <walk edges="-890573909#0 -890573910 -890573912 890573913#1 -600582035#1"/>
    </person>
    <person id="ped132" type="ped_pedestrian" depart="568.97">
        <walk edges="873097733#2 849806807#0 1217251812#1 1107126499#1 873097735#1 873097735#2 873097735#3 873097735#4 702919619#1 702919619#0 702919620#0"/>
    </person>
    <person id="ped133" type="ped_pedestrian" depart="573.28">
        <walk edges="1219936085#0 1110686330#0 873097734#3 849806807#2 849806808#2 1217251812#0 1217251812#1 1107126499#1 873097735#1 873097735#2 873097735#3 890573898#0 -600582035#2 890573913#1 -890573912 -890573910 890573909#0"/>
    </person>
    <person id="ped143" type="ped_pedestrian" depart="616.38">
        <walk edges="873097734#0 873097734#1 873097734#2 849806807#2 849806807#0 873097733#2 873097733#3 -1219690207#0"/>
    </person>
    <person id="ped144" type="ped_pedestrian" depart="620.69">
        <walk edges="1107126499#1 873097735#1 873097735#2 873097735#3 890573898#0 -600582035#2 890573913#1 -890573912 -1212991374#1 -890573907#0"/>
    </person>
    <person id="ped146" type="ped_pedestrian" depart="629.31">
        <walk edges="1308540803#0 1109199321 858830430 873097730#0 858830428 702919617#0 702919617#1 702919619#0 702919619#1 873097735#4 890573898#0 -600582035#2 890573913#1 -890573912 -1212991374#1 -1212991374#0 890573907#1 890573899 -890573899"/>
    </person>
    <person id="ped147" type="ped_pedestrian" depart="633.62">
        <walk edges="709360975 838059688 1107305103#1 1109199320#1 702919620#2 702919620#1 702919620#0 702919619#0 702919619#1 873097735#4 873097735#3 873097735#2 873097735#1 1107126499#1 1217251812#1 1217251812#0 849806808#2 849806807#2 873097734#3 1110686330#0 -1219936085#0 1219936084#0"/>
    </person>
    <person id="ped154" type="ped_pedestrian" depart="663.79">
        <walk edges="873097730#1 858830428 702919617#0 702919617#1 702919619#0 702919619#1 873097735#5"/>
    </person>
    <person id="ped156" type="ped_pedestrian" depart="672.41">
        <walk edges="-683855298#1 683855298#1 1107126499#1 1217251812#1 1217251812#0 849806808#2 849806807#2 873097734#3 1110686330#0 -1219936085#0"/>
    </person>
    <person id="ped160" type="ped_pedestrian" depart="689.66">
        <walk edges="873097735#2 873097735#3 890573898#0 -600582035#2 890573913#1 -890573912 -1212991374#1 -1212991374#0 890573906#0"/>
    </person>
    <person id="ped162" type="ped_pedestrian" depart="698.28">
        <walk edges="-1040728812 -890573909#0 -890573910 -890573912 890573913#1 600582035#1 890573896 -1126642085 806263709#1"/>
    </person>
    <person id="ped164" type="ped_pedestrian" depart="706.90">
        <walk edges="873097730#3 709360974 709360973 838059688 1107305103#1 1109199320#1 702919620#2 702919620#1 702919620#0 702919619#0 702919619#1 873097735#5"/>
    </person>
    <person id="ped167" type="ped_pedestrian" depart="719.83">
        <walk edges="873097735#3 873097735#4"/>
    </person>
    <person id="ped168" type="ped_pedestrian" depart="724.14">
        <walk edges="-601455485 1107305087#1 1107305089#0 1107305089#1 1107305085#1 1109199320#1 702919620#2 702919620#1 702919620#0 702919619#0 702919619#1 873097735#4 873097735#3 873097735#2 873097735#1 1107126499#1 1217251812#1 849806807#0 873097733#2"/>
    </person>
    <person id="ped171" type="ped_pedestrian" depart="737.07">
        <walk edges="-1040728812 -890573909#0 -890573910 -890573912 890573913#1 600582035#1 890573896 -1126642085 -806263709#0"/>
    </person>
    <person id="ped172" type="ped_pedestrian" depart="741.38">
        <walk edges="-890573894 890573907#1 -1212991374#0 -1212991374#1 -890573912 890573913#1 -600582035#2 890573898#0 873097735#4 873097735#5 890197308#0"/>
    </person>
    <person id="ped173" type="ped_pedestrian" depart="745.69">
        <walk edges="890573902 890573905 -890573906#0 -890573907#1"/>
    </person>
    <person id="ped174" type="ped_pedestrian" depart="750.00">
        <walk edges="1308543772#1 1209074830#2 1209074830#1 1109199321 858830430 873097730#0 858830428 702919617#0 702919617#1 702919620#0 702919620#1 702919620#2 1109199320#1 1107305103#1"/>
    </person>
    <person id="ped175" type="ped_pedestrian" depart="754.31">
        <walk edges="890573908 -890573910 -890573912 890573913#1 -600582035#2 890573898#0 873097735#3 873097735#2 873097735#1 1107126499#1 1217251812#1"/>
    </person>
    <person id="ped177" type="ped_pedestrian" depart="762.93">
        <walk edges="890573904 890573905 -890573906#0 -1212991374#0 -1212991374#1 -890573912 890573913#1 -600582035#2 890573898#0 873097735#3 873097735#2 873097735#1 683855298#1 -683855298#1"/>
    </person>
    <person id="ped178" type="ped_pedestrian" depart="767.24">
        <walk edges="890573900 -1136683935 -890573901"/>
    </person>
    <person id="ped179" type="ped_pedestrian" depart="771.55">
        <walk edges="-1212991374#0 -1212991374#1 -890573912 890573913#1 600582035#1 890573896 1126642085"/>
    </person>
    <person id="ped181" type="ped_pedestrian" depart="780.17">
        <walk edges="1219936084#0 -1219936085#0 1110686330#0 873097734#3 849806807#2 849806807#0 873097733#1 873097733#0 1209074831#0"/>
    </person>
    <person id="ped185" type="ped_pedestrian" depart="797.41">
        <walk edges="1209044000#1 873097734#1 873097734#2 849806807#2 849806808#2 1217251812#0 1217251812#1 1107126499#1 873097735#1 873097735#2 1106261819#0 1106261819#1 1106261819#2 1209074830#1 1109199321 858830430 873097730#0 873097730#1 873097730#2 709360974"/>
    </person>
    <person id="ped187" type="ped_pedestrian" depart="806.03">
        <walk edges="-890573907#0 -1212991374#1 -890573912 890573913#1 -600582035#2 890573898#0 873097735#3 873097735#2 873097735#1 1107126499#1 1217251812#1 1217251812#0 849806808#2 849806807#2 873097734#2 -1209044001#0"/>
    </person>
    <person id="ped189" type="ped_pedestrian" depart="814.66">
        <walk edges="-890573879 -1308540803#0 1209074830#1 1106261819#2 1106261819#1 1106261819#0 873097735#2"/>
    </person>
    <person id="ped193" type="ped_pedestrian" depart="831.90">
        <walk edges="-1219936084#1 -1219936085#0 1110686330#0"/>
    </person>
    <person id="ped205" type="ped_pedestrian" depart="883.62">
        <walk edges="873097731#1 1107305084#1 1107305084#0 890197308#0 873097735#5 873097735#4 873097735#3 873097735#2 873097735#1 1107126499#1 1217251812#1 1217251812#0 849806808#2 849806807#2"/>
    </person>
    <person id="ped209" type="ped_pedestrian" depart="900.86">
        <walk edges="873097734#1 1209044001#1 -1209044002"/>
    </person>
    <person id="ped214" type="ped_pedestrian" depart="922.41">
        <walk edges="806263709#0 -1126642085 890573896 600582035#1 -600582035#2 890573898#0 873097735#4 702919619#1 702919619#0 702919617#1 702919617#0 858830428 873097730#0 858830430"/>
    </person>
    <person id="ped217" type="ped_pedestrian" depart="935.34">
        <walk edges="1136870138 -1136870139#0 1136870139#1 -1136870139#2"/>
    </person>
    <person id="ped218" type="ped_pedestrian" depart="939.66">
        <walk edges="-683855298#1 683855298#1 873097735#1 873097735#2"/>
    </person>
    <person id="ped219" type="ped_pedestrian" depart="943.97">
        <walk edges="1107305087#1 1107305087#2 873097731#1"/>
    </person>
    <person id="ped221" type="ped_pedestrian" depart="952.59">
        <walk edges="1217251812#1 1107126499#1 873097735#1 873097735#2 873097735#3 890573898#1"/>
    </person>
    <person id="ped223" type="ped_pedestrian" depart="961.21">
        <walk edges="702919620#0 702919617#1 702919617#0 858830428 873097730#0 858830430 1109199321 1209074830#1 1209074830#2 1209074830#3 1209074830#4"/>
    </person>
    <person id="ped224" type="ped_pedestrian" depart="965.52">
        <walk edges="873097733#2 1219690215#0"/>
    </person>
    <person id="ped226" type="ped_pedestrian" depart="974.14">
        <walk edges="1107305103#1 1109199320#1 702919620#2 702919620#1 702919620#0 702919619#0 702919619#1 873097735#4 -890573898#1"/>
    </person>
    <person id="ped234" type="ped_pedestrian" depart="1008.62">
        <walk edges="702919617#1 702919619#0 702919619#1 873097735#4 873097735#3 873097735#2 873097735#1 1107126499#1 1217251812#1 1217251812#0 849806808#2 849806807#2 873097734#2 873097734#1 -1209044000#0"/>
    </person>
    <person id="ped235" type="ped_pedestrian" depart="1012.93">
        <walk edges="1106261819#0 873097735#2 873097735#1 1107126499#1 1217251812#1 849806807#0 873097733#2 873097733#3 873097733#4 1219438151#1"/>
    </person>
    <person id="ped239" type="ped_pedestrian" depart="1030.17">
        <walk edges="873097734#3 849806807#2 849806808#2 1217251812#0 1217251812#1 1107126499#1 873097735#1 873097735#2 1106261819#0 1106261819#1 1106261819#2 1209074830#1 1109199321 858830430 873097730#0 858830428"/>
    </person>
    <person id="ped241" type="ped_pedestrian" depart="1038.79">
        <walk edges="-890573902 890573905 -890573906#0 -1212991374#0 -1212991374#1 -890573912 890573913#1 -600582035#2 890573898#0 873097735#3 873097735#2 873097735#1 1107126499#1 1217251812#1 1217251812#0 849806808#2 849806807#2"/>
    </person>
    <person id="ped242" type="ped_pedestrian" depart="1043.10">
        <walk edges="873097734#2 849806807#2 849806808#2 1217251812#0 1217251812#1 1107126499#1 873097735#1 873097735#2 873097735#3 890573898#0 -600582035#2 890573913#1 -890573912 -1212991374#1 -1212991374#0 890573907#1 890573899"/>
    </person>
    <person id="ped243" type="ped_pedestrian" depart="1047.41">
        <walk edges="1107126499#0 1217251812#1 849806807#0"/>
    </person>
    <person id="ped246" type="ped_pedestrian" depart="1060.34">
        <walk edges="1107305084#0 890197308#0 873097735#5 873097735#4 890573898#0 -600582035#2 600582035#1 890573896 -1126642085 -806263709#1 -1126642084#0"/>
    </person>
    <person id="ped247" type="ped_pedestrian" depart="1064.66">
        <walk edges="-890573898#1 873097735#3 873097735#2 873097735#1 683855298#1"/>
    </person>
    <person id="ped248" type="ped_pedestrian" depart="1068.97">
        <walk edges="1106261819#0 873097735#3 873097735#4 702919619#1 702919619#0 702919620#0 702919620#1 702919620#2 1109199320#1 1107305085#1 1107305089#1 1107305089#0 1107305087#1 1107305087#0 -601455486"/>
    </person>
    <person id="ped249" type="ped_pedestrian" depart="1073.28">
        <walk edges="1107305089#1 1107305085#1 1109199320#1 702919620#2 702919620#1 702919620#0 702919617#1 702919617#0 858830428 873097730#0 858830430 1109199321 -1308540803#0"/>
    </person>
    <person id="ped252" type="ped_pedestrian" depart="1086.21">
        <walk edges="-1040728812 -890573909#0 -890573910 -890573912 890573913#1 600582035#1 890573896 -1126642085 -806263709#1 -1126642084#0 600582033"/>
    </person>
    <person id="ped256" type="ped_pedestrian" depart="1103.45">
        <walk edges="838059688 1107305103#1 1107305085#1 1107305089#1 1107305089#0 1107305087#1 1107305087#0"/>
    </person>
    <person id="ped257" type="ped_pedestrian" depart="1107.76">
        <walk edges="806263709#0 -1126642085 890573896 600582035#1 -600582035#2 890573898#0 873097735#3 873097735#2 873097735#1 1107126499#1 1217251812#1 1217251812#0 849806808#2 849806807#2 873097734#2 873097734#1"/>
    </person>
    <person id="ped258" type="ped_pedestrian" depart="1112.07">
        <walk edges="-683855299#0 873097735#5 873097735#4 890573898#0 -600582035#2 890573913#1 -890573912 -1212991374#1"/>
    </person>
    <person id="ped267" type="ped_pedestrian" depart="1150.86">
        <walk edges="683855299#0 873097735#5 702919619#1 702919619#0 702919617#1 702919617#0 858830428 873097730#0 858830430"/>
    </person>
    <person id="ped270" type="ped_pedestrian" depart="1163.79">
        <walk edges="873097731#1 1107305084#1 1107305084#0 890197308#0 873097735#5 873097735#4 890573898#0 -600582035#2 890573913#1 -890573912 -1212991374#1 -1212991374#0 -890573906#0 890573905 890573902"/>
    </person>
    <person id="ped272" type="ped_pedestrian" depart="1172.41">
        <walk edges="-890573879 -1308540803#0 1209074830#1 1106261819#2 1106261819#1 1106261819#0 873097735#2 873097735#1 683855298#1"/>
    </person>
    <person id="ped273" type="ped_pedestrian" depart="1176.72">
        <walk edges="890573898#1 873097735#4 702919619#1 702919619#0 702919620#0 702919620#1 702919620#2 1109199320#1 1107305085#1 1107305089#1"/>
    </person>
    <person id="ped275" type="ped_pedestrian" depart="1185.34">
        <walk edges="683855296#0 873097735#1 1107126499#1 1217251812#1 849806807#0 873097733#2 -1219690215#0 1308543778"/>
    </person>
    <person id="ped278" type="ped_pedestrian" depart="1198.28">
        <walk edges="-1219690215#0 873097733#2 849806807#0 1217251812#1 1107126499#1 873097735#1 873097735#2 873097735#3 890573898#0 -600582035#2 890573913#1 -890573912 -890573910 890573908"/>
    </person>
    <person id="ped279" type="ped_pedestrian" depart="1202.59">
        <walk edges="858830428 873097730#0 858830430 1109199321 1209074830#1 1106261819#2 1106261819#1 1106261819#0 873097735#2 873097735#1 1107126499#1 1107126499#0"/>
    </person>
    <person id="ped280" type="ped_pedestrian" depart="1206.90">
        <walk edges="1107126501#0 1217251812#1 1107126499#1 873097735#1 873097735#2 873097735#3 873097735#4 702919619#1 702919619#0 702919620#0 702919620#1 702919620#2 1109199320#1 1107305085#1 1107305085#0"/>
    </person>
    <person id="ped281" type="ped_pedestrian" depart="1211.21">
        <walk edges="1126642085 890573896 600582035#1 -600582035#2 890573898#0 873097735#3 1106261819#0 1106261819#1 1106261819#2"/>
    </person>
    <person id="ped282" type="ped_pedestrian" depart="1215.52">
        <walk edges="873097734#1 873097734#2 849806807#2 849806807#0 873097733#2 873097733#3 873097733#4"/>
    </person>
    <person id="ped286" type="ped_pedestrian" depart="1232.76">
        <walk edges="709360973 838059688 1107305103#1 1109199320#1 702919620#2 702919620#1 702919620#0 702919619#0 702919619#1 873097735#4 890573898#0 -600582035#2 890573913#1 -890573912 -1212991374#1 -1212991374#0 -890573906#0 890573905 890573902"/>
    </person>
    <person id="ped288" type="ped_pedestrian" depart="1241.38">
        <walk edges="1209044000#1 873097734#1 1209044001#0"/>
    </person>
    <person id="ped294" type="ped_pedestrian" depart="1267.24">
        <walk edges="-890573913#0 890573913#1 600582035#1 890573896 -1126642085 -806263709#1 -1126642084#0"/>
    </person>
    <person id="ped295" type="ped_pedestrian" depart="1271.55">
        <walk edges="873097734#1 873097734#2 849806807#2 849806808#2 1217251812#0 1217251812#1 1107126499#1 873097735#1 873097735#2 873097735#3 873097735#4 873097735#5 -683855299#0"/>
    </person>
    <person id="ped296" type="ped_pedestrian" depart="1275.86">
        <walk edges="-600582033 -1126642084#0 -806263709#1 -1126642085 890573896 600582035#1 -600582035#2 890573898#0 873097735#4 873097735#5 890197308#0 1107305084#0 1107305084#1 873097731#0"/>
    </person>
    <person id="ped298" type="ped_pedestrian" depart="1284.48">
        <walk edges="702919617#0 702919617#1 702919619#0 702919619#1 873097735#4 890573898#0 -600582035#2 890573913#1 -890573912 -1212991374#1 -890573907#0"/>
    </person>