<?xml version="1.0" encoding="UTF-8"?>

<!-- generated on 2024-08-23 15:22:05.957901 by osmWebWizard.py v1_20_0+0002-343658e7c64
<configuration>
    <net-file value="C:\Users\ADMIN\Sumo\2024-08-23-15-21-40\osm.net.xml.gz"/>
    <output-trip-file value="C:\Users\ADMIN\Sumo\2024-08-23-15-21-40\osm.bicycle.trips.xml"/>
    <route-file value="C:\Users\ADMIN\Sumo\2024-08-23-15-21-40\osm.bicycle.rou.xml"/>
    <prefix value="bike"/>
    <trip-attributes value="departLane=&quot;best&quot;"/>
    <fringe-start-attributes value="departSpeed=&quot;max&quot;"/>
    <vehicle-class value="bicycle"/>
    <fringe-factor value="1"/>
    <vclass value="bicycle"/>
    <via-edge-types value="highway.motorway,highway.motorway_link,highway.trunk_link,highway.primary_link,highway.secondary_link,highway.tertiary_link"/>
    <max-distance value="8000.0"/>
    <remove-loops value="True"/>
    <validate value="True"/>
    <insertion-density value="15.0"/>
</configuration>
-->

<!-- generated on 2024-08-23 15:22:03 by Eclipse SUMO duarouter Version 1.20.0
<configuration xmlns:xsi="http://www.w3.org/2001/XMLSchema-instance" xsi:noNamespaceSchemaLocation="http://sumo.dlr.de/xsd/duarouterConfiguration.xsd">

    <input>
        <net-file value="C:\Users\ADMIN\Sumo\2024-08-23-15-21-40\osm.net.xml.gz"/>
        <route-files value="C:\Users\ADMIN\Sumo\2024-08-23-15-21-40\osm.bicycle.trips.xml"/>
    </input>

    <output>
        <output-file value="C:\Users\ADMIN\Sumo\2024-08-23-15-21-40\osm.bicycle.trips.xml.tmp"/>
        <alternatives-output value="NUL"/>
        <write-trips value="true"/>
    </output>

    <processing>
        <remove-loops value="true"/>
    </processing>

    <time>
        <begin value="0.0"/>
        <end value="3600.0"/>
    </time>

    <report>
        <no-warnings value="true"/>
        <ignore-errors value="true"/>
        <no-step-log value="true"/>
    </report>

</configuration>
-->

<routes xmlns:xsi="http://www.w3.org/2001/XMLSchema-instance" xsi:noNamespaceSchemaLocation="http://sumo.dlr.de/xsd/routes_file.xsd">
    <vType id="bike_bicycle" vClass="bicycle"/>
    <trip id="bike0" type="bike_bicycle" depart="0.00" departLane="best" from="-37731777#1" to="1106598528#1"/>
    <trip id="bike1" type="bike_bicycle" depart="2.02" departLane="best" from="598675467#0" to="-597555267#3"/>
    <trip id="bike2" type="bike_bicycle" depart="4.04" departLane="best" from="597607795#4" to="50536193#1"/>
    <trip id="bike3" type="bike_bicycle" depart="6.05" departLane="best" from="709289373#1" to="-1267842572#2"/>
    <trip id="bike4" type="bike_bicycle" depart="8.07" departLane="best" from="-889984928#1" to="-1112836175"/>
    <trip id="bike5" type="bike_bicycle" depart="10.09" departLane="best" from="-593638911#2" to="-1192868606#0"/>
    <trip id="bike6" type="bike_bicycle" depart="12.11" departLane="best" from="-1096184940" to="-597126911#0"/>
    <trip id="bike7" type="bike_bicycle" depart="14.12" departLane="best" from="397992225#7" to="-1231582014#0"/>
    <trip id="bike8" type="bike_bicycle" depart="16.14" departLane="best" from="-593642478#1" to="136176013#4"/>
    <trip id="bike9" type="bike_bicycle" depart="18.16" departLane="best" from="-599147987#0" to="-1023619587#0"/>
    <trip id="bike10" type="bike_bicycle" depart="20.18" departLane="best" from="-598767891#3" to="596802451#3"/>
    <trip id="bike11" type="bike_bicycle" depart="22.20" departLane="best" from="617320301#1" to="399449409#6"/>
    <trip id="bike12" type="bike_bicycle" depart="24.21" departLane="best" from="889985051#1" to="684728089#0"/>
    <trip id="bike13" type="bike_bicycle" depart="26.23" departLane="best" departSpeed="max" from="-1237202839" to="-136161120#1"/>
    <trip id="bike14" type="bike_bicycle" depart="28.25" departLane="best" from="-684524088#0" to="220360797#1"/>
    <trip id="bike15" type="bike_bicycle" depart="30.27" departLane="best" from="598788861" to="-597607800#0"/>
    <trip id="bike16" type="bike_bicycle" depart="32.29" departLane="best" from="1196399743#1" to="945322259#5"/>
    <trip id="bike17" type="bike_bicycle" depart="34.30" departLane="best" from="-708550656#1" to="-1253116778#0"/>
    <trip id="bike18" type="bike_bicycle" depart="36.32" departLane="best" departSpeed="max" from="617320301#0" to="36730546#1"/>
    <trip id="bike19" type="bike_bicycle" depart="38.34" departLane="best" from="704606545#1" to="1267842582"/>
    <trip id="bike20" type="bike_bicycle" depart="40.36" departLane="best" departSpeed="max" from="596802483#0" to="-1193725358"/>
    <trip id="bike21" type="bike_bicycle" depart="42.37" departLane="best" from="596788389#1" to="598767882#3"/>
    <trip id="bike22" type="bike_bicycle" depart="44.39" departLane="best" from="1211217611#1" to="-597607818"/>
    <trip id="bike23" type="bike_bicycle" depart="46.41" departLane="best" departSpeed="max" from="-1253116781" to="-598756404#1"/>
    <trip id="bike24" type="bike_bicycle" depart="48.43" departLane="best" from="374515771#2" to="763602937#2"/>
    <trip id="bike25" type="bike_bicycle" depart="50.45" departLane="best" from="-706455003#0" to="-597136850#1"/>
    <trip id="bike26" type="bike_bicycle" depart="52.46" departLane="best" from="-597619419#1" to="-889984931"/>
    <trip id="bike27" type="bike_bicycle" depart="54.48" departLane="best" from="-397992225#3" to="28924706#1"/>
    <trip id="bike28" type="bike_bicycle" depart="56.50" departLane="best" from="37731777#1" to="-597607799#3"/>
    <trip id="bike29" type="bike_bicycle" depart="58.52" departLane="best" from="374515768#0" to="-838425492#6"/>
    <trip id="bike30" type="bike_bicycle" depart="60.53" departLane="best" from="953227384#4" to="-38107924#4"/>
    <trip id="bike31" type="bike_bicycle" depart="62.55" departLane="best" from="1217463138" to="593638911#2"/>
    <trip id="bike33" type="bike_bicycle" depart="66.59" departLane="best" departSpeed="max" from="-596802417#1" to="-1136892216#0"/>
    <trip id="bike34" type="bike_bicycle" depart="68.61" departLane="best" from="-598767884#3" to="-598686816"/>
    <trip id="bike35" type="bike_bicycle" depart="70.62" departLane="best" from="-50536193#11" to="889984966"/>
    <trip id="bike36" type="bike_bicycle" depart="72.64" departLane="best" from="708533143#10" to="-617320301#0"/>
    <trip id="bike37" type="bike_bicycle" depart="74.66" departLane="best" from="397993967#1" to="889984965"/>
    <trip id="bike38" type="bike_bicycle" depart="76.68" departLane="best" from="-826874589#0" to="1042210712"/>
    <trip id="bike39" type="bike_bicycle" depart="78.69" departLane="best" from="-597607823" to="-598675470"/>
    <trip id="bike40" type="bike_bicycle" depart="80.71" departLane="best" from="1231582014#0" to="-598686810#0"/>
    <trip id="bike41" type="bike_bicycle" depart="82.73" departLane="best" departSpeed="max" from="1290401834#0" to="782027542#4"/>
    <trip id="bike42" type="bike_bicycle" depart="84.75" departLane="best" from="-782027542#0" to="-597555261#0"/>
    <trip id="bike43" type="bike_bicycle" depart="86.77" departLane="best" from="962177671#0" to="1192885698#0"/>
    <trip id="bike44" type="bike_bicycle" depart="88.78" departLane="best" from="472431975#3" to="-1196399797#1"/>
    <trip id="bike45" type="bike_bicycle" depart="90.80" departLane="best" departSpeed="max" from="-1262814304#13" to="374515768#0"/>
    <trip id="bike46" type="bike_bicycle" depart="92.82" departLane="best" from="598756413#3" to="945322260#1"/>
    <trip id="bike47" type="bike_bicycle" depart="94.84" departLane="best" from="-1192885698#0" to="-856290146#1"/>
    <trip id="bike48" type="bike_bicycle" depart="96.86" departLane="best" from="961713523#2" to="1206532587"/>
    <trip id="bike49" type="bike_bicycle" depart="98.87" departLane="best" from="926182259" to="708521404#1"/>
    <trip id="bike50" type="bike_bicycle" depart="100.89" departLane="best" departSpeed="max" from="-1033167025" to="-597555259#1"/>
    <trip id="bike51" type="bike_bicycle" depart="102.91" departLane="best" from="50536193#1" to="1217463137#2"/>
    <trip id="bike52" type="bike_bicycle" depart="104.93" departLane="best" from="-597619419#1" to="38107924#6"/>
    <trip id="bike53" type="bike_bicycle" depart="106.94" departLane="best" from="-1262814304#5" to="1012341096"/>
    <trip id="bike54" type="bike_bicycle" depart="108.96" departLane="best" from="905363915#2" to="-890573917"/>
    <trip id="bike55" type="bike_bicycle" depart="110.98" departLane="best" from="-708521402#1" to="-598686810#1"/>
    <trip id="bike57" type="bike_bicycle" depart="115.02" departLane="best" from="-826873321#1" to="708920948"/>
    <trip id="bike58" type="bike_bicycle" depart="117.03" departLane="best" from="598756388#1" to="38107924#1"/>
    <trip id="bike59" type="bike_bicycle" depart="119.05" departLane="best" from="242518346#0" to="705794060#0"/>
    <trip id="bike60" type="bike_bicycle" depart="121.07" departLane="best" from="-598685155#0" to="1217463139"/>
    <trip id="bike62" type="bike_bicycle" depart="125.10" departLane="best" from="-1023619572#0" to="683876839#2"/>
    <trip id="bike63" type="bike_bicycle" depart="127.12" departLane="best" from="-1040758930#0" to="889429781"/>
    <trip id="bike64" type="bike_bicycle" depart="129.14" departLane="best" from="708533143#5" to="684728089#0"/>
    <trip id="bike65" type="bike_bicycle" depart="131.16" departLane="best" from="-598767869#0" to="-1211217608#0"/>
    <trip id="bike66" type="bike_bicycle" depart="133.18" departLane="best" from="-708533143#4" to="889984973#2"/>
    <trip id="bike67" type="bike_bicycle" depart="135.19" departLane="best" from="-1217463137#6" to="1112836174#1"/>
    <trip id="bike68" type="bike_bicycle" depart="137.21" departLane="best" from="-1196399800#0" to="-598686811#1"/>
    <trip id="bike69" type="bike_bicycle" depart="139.23" departLane="best" from="598686800#2" to="-374515769#1"/>
    <trip id="bike70" type="bike_bicycle" depart="141.25" departLane="best" from="1023619572#1" to="1244011988#0"/>
    <trip id="bike71" type="bike_bicycle" depart="143.26" departLane="best" from="-597619416" to="-708920953#0"/>
    <trip id="bike72" type="bike_bicycle" depart="145.28" departLane="best" from="-889984929#4" to="597136850#7"/>
    <trip id="bike73" type="bike_bicycle" depart="147.30" departLane="best" from="1196399799#0" to="-597607800#0"/>
    <trip id="bike74" type="bike_bicycle" depart="149.32" departLane="best" from="465069895#5" to="602362882#2"/>
    <trip id="bike75" type="bike_bicycle" depart="151.34" departLane="best" from="961664404" to="397993230#0"/>
    <trip id="bike76" type="bike_bicycle" depart="153.35" departLane="best" from="-889984977" to="1196399797#0"/>
    <trip id="bike77" type="bike_bicycle" depart="155.37" departLane="best" departSpeed="max" from="-1267842578" to="597607795#2"/>
    <trip id="bike78" type="bike_bicycle" depart="157.39" departLane="best" from="-602362882#3" to="136176013#1"/>
    <trip id="bike79" type="bike_bicycle" depart="159.41" departLane="best" from="-596802428#1" to="-597555261#2"/>
    <trip id="bike80" type="bike_bicycle" depart="161.43" departLane="best" from="-1196399802" to="374515771#2"/>
    <trip id="bike81" type="bike_bicycle" depart="163.44" departLane="best" departSpeed="max" from="-596802417#1" to="596802428#2"/>
    <trip id="bike82" type="bike_bicycle" depart="165.46" departLane="best" from="704595023#1" to="-1253116778#0"/>
    <trip id="bike83" type="bike_bicycle" depart="167.48" departLane="best" from="-597126923#0" to="465069895#9"/>
    <trip id="bike84" type="bike_bicycle" depart="169.50" departLane="best" from="-50536193#6" to="374515771#6"/>
    <trip id="bike85" type="bike_bicycle" depart="171.51" departLane="best" from="875229048" to="1267842569#3"/>
    <trip id="bike86" type="bike_bicycle" depart="173.53" departLane="best" from="961921082" to="598767884#2"/>
    <trip id="bike87" type="bike_bicycle" depart="175.55" departLane="best" departSpeed="max" from="598788862" to="-596788386#2"/>
    <trip id="bike89" type="bike_bicycle" depart="179.59" departLane="best" from="-889984929#5" to="-1098211964"/>
    <trip id="bike90" type="bike_bicycle" depart="181.60" departLane="best" from="597555259#1" to="-473304000"/>
    <trip id="bike91" type="bike_bicycle" depart="183.62" departLane="best" from="946030659" to="-136176013#4"/>
    <trip id="bike92" type="bike_bicycle" depart="185.64" departLane="best" from="-816208527#1" to="693286036#2"/>
    <trip id="bike93" type="bike_bicycle" depart="187.66" departLane="best" from="704606545#1" to="-598675475"/>
    <trip id="bike94" type="bike_bicycle" depart="189.67" departLane="best" departSpeed="max" from="-399449409#10" to="1038278510#0"/>
    <trip id="bike95" type="bike_bicycle" depart="191.69" departLane="best" from="-889984928#1" to="-598756407"/>
    <trip id="bike96" type="bike_bicycle" depart="193.71" departLane="best" from="597555258#1" to="856290142#1"/>
    <trip id="bike97" type="bike_bicycle" depart="195.73" departLane="best" from="-890573927" to="708533143#10"/>
    <trip id="bike98" type="bike_bicycle" depart="197.75" departLane="best" from="1211217604#1" to="1196399801#3"/>
    <trip id="bike99" type="bike_bicycle" depart="199.76" departLane="best" from="-962179362#2" to="693286036#5"/>
    <trip id="bike100" type="bike_bicycle" depart="201.78" departLane="best" from="905363915#8" to="863044707#1"/>
    <trip id="bike101" type="bike_bicycle" depart="203.80" departLane="best" from="-684728084#0" to="-465069895#9"/>
    <trip id="bike102" type="bike_bicycle" depart="205.82" departLane="best" from="-1033167024#0" to="-597555254#0"/>
    <trip id="bike103" type="bike_bicycle" depart="207.83" departLane="best" from="-782027542#4" to="863044706#1"/>
    <trip id="bike104" type="bike_bicycle" depart="209.85" departLane="best" from="-708550657#0" to="952211062"/>
    <trip id="bike105" type="bike_bicycle" depart="211.87" departLane="best" from="-597619416" to="598767884#1"/>
    <trip id="bike106" type="bike_bicycle" depart="213.89" departLane="best" from="-905363915#5" to="-945322260#3"/>
    <trip id="bike107" type="bike_bicycle" depart="215.91" departLane="best" departSpeed="max" from="889985052#0" to="961713523#1"/>
    <trip id="bike108" type="bike_bicycle" depart="217.92" departLane="best" from="-1217463137#5" to="-597555255#6"/>
    <trip id="bike109" type="bike_bicycle" depart="219.94" departLane="best" from="-29313247#2" to="-598788859"/>
    <trip id="bike110" type="bike_bicycle" depart="221.96" departLane="best" from="905363915#7" to="1290401834#1"/>
    <trip id="bike111" type="bike_bicycle" depart="223.98" departLane="best" from="1196399801#4" to="598675475"/>
    <trip id="bike112" type="bike_bicycle" depart="226.00" departLane="best" departSpeed="max" from="-1171089854#4" to="1291196937#1"/>
    <trip id="bike114" type="bike_bicycle" depart="230.03" departLane="best" from="-318479651#3" to="897413529#0"/>
    <trip id="bike115" type="bike_bicycle" depart="232.05" departLane="best" from="1211217611#1" to="-593642479#5"/>
    <trip id="bike116" type="bike_bicycle" depart="234.07" departLane="best" from="136556857#1" to="480685836#2"/>
    <trip id="bike117" type="bike_bicycle" depart="236.08" departLane="best" from="-597126921#1" to="-318479651#2"/>
    <trip id="bike118" type="bike_bicycle" depart="238.10" departLane="best" from="708964308" to="-598675469#1"/>
    <trip id="bike119" type="bike_bicycle" depart="240.12" departLane="best" from="136556857#0" to="369969171#1"/>
    <trip id="bike120" type="bike_bicycle" depart="242.14" departLane="best" departSpeed="max" from="-889429785" to="-1291196936#0"/>
    <trip id="bike121" type="bike_bicycle" depart="244.16" departLane="best" from="11707000#2" to="889984929#0"/>
    <trip id="bike122" type="bike_bicycle" depart="246.17" departLane="best" from="472431975#0" to="-597555253#0"/>
    <trip id="bike123" type="bike_bicycle" depart="248.19" departLane="best" from="-597136845#1" to="-889984966"/>
    <trip id="bike124" type="bike_bicycle" depart="250.21" departLane="best" from="465069895#5" to="-599147987#1"/>
    <trip id="bike125" type="bike_bicycle" depart="252.23" departLane="best" from="-598767885#1" to="598686800#0"/>
    <trip id="bike126" type="bike_bicycle" depart="254.24" departLane="best" from="1197061361#1" to="1042206659"/>
    <trip id="bike127" type="bike_bicycle" depart="256.26" departLane="best" from="-962179362#0" to="961919155"/>
    <trip id="bike128" type="bike_bicycle" depart="258.28" departLane="best" departSpeed="max" from="-1201678931" to="-597555253#1"/>
    <trip id="bike129" type="bike_bicycle" depart="260.30" departLane="best" from="-597619416" to="889984925#1"/>
    <trip id="bike130" type="bike_bicycle" depart="262.32" departLane="best" from="-708546429#0" to="709360982#2"/>
    <trip id="bike131" type="bike_bicycle" depart="264.33" departLane="best" from="-705266925" to="-459315212#0"/>
    <trip id="bike132" type="bike_bicycle" depart="266.35" departLane="best" from="675260241#2" to="-597126921#2"/>
    <trip id="bike133" type="bike_bicycle" depart="268.37" departLane="best" from="1192885702" to="-953254972"/>
    <trip id="bike134" type="bike_bicycle" depart="270.39" departLane="best" from="397993230#1" to="-1023619589"/>
    <trip id="bike135" type="bike_bicycle" depart="272.40" departLane="best" from="601529284#0" to="-599147987#0"/>
    <trip id="bike137" type="bike_bicycle" depart="276.44" departLane="best" from="136176013#3" to="-28924711#1"/>
    <trip id="bike138" type="bike_bicycle" depart="278.46" departLane="best" from="-1258466604#8" to="1253116779"/>
    <trip id="bike140" type="bike_bicycle" depart="282.49" departLane="best" from="597136850#2" to="-597126922#1"/>
    <trip id="bike141" type="bike_bicycle" depart="284.51" departLane="best" from="374515770#0" to="-598686811#1"/>
    <trip id="bike142" type="bike_bicycle" depart="286.53" departLane="best" from="1040564675#0" to="826873323#1"/>
    <trip id="bike143" type="bike_bicycle" depart="288.55" departLane="best" departSpeed="max" from="684504391" to="-1290401834#6"/>
    <trip id="bike144" type="bike_bicycle" depart="290.57" departLane="best" from="-889984929#5" to="598756401#1"/>
    <trip id="bike145" type="bike_bicycle" depart="292.58" departLane="best" departSpeed="max" from="-1023619576#2" to="-598756399#0"/>
    <trip id="bike146" type="bike_bicycle" depart="294.60" departLane="best" from="374515771#5" to="-598686809#0"/>
    <trip id="bike147" type="bike_bicycle" depart="296.62" departLane="best" from="-597607813#0" to="1253116777"/>
    <trip id="bike148" type="bike_bicycle" depart="298.64" departLane="best" departSpeed="max" from="-889984952" to="-1033758959"/>
    <trip id="bike149" type="bike_bicycle" depart="300.65" departLane="best" departSpeed="max" from="-1202718343" to="711492959#1"/>
    <trip id="bike150" type="bike_bicycle" depart="302.67" departLane="best" from="77864349#2" to="-1231582014#2"/>
    <trip id="bike151" type="bike_bicycle" depart="304.69" departLane="best" from="675260241#4" to="1290402078"/>
    <trip id="bike152" type="bike_bicycle" depart="306.71" departLane="best" from="25953552#1" to="-374515768#2"/>
    <trip id="bike153" type="bike_bicycle" depart="308.73" departLane="best" from="-598767869#2" to="813363002#0"/>
    <trip id="bike154" type="bike_bicycle" depart="310.74" departLane="best" departSpeed="max" from="598767872" to="708521404#1"/>
    <trip id="bike155" type="bike_bicycle" depart="312.76" departLane="best" from="-763602932#1" to="-597136850#3"/>
    <trip id="bike156" type="bike_bicycle" depart="314.78" departLane="best" from="597555255#8" to="-183423974#1"/>
    <trip id="bike157" type="bike_bicycle" depart="316.80" departLane="best" departSpeed="max" from="598756381" to="-711525255#1"/>
    <trip id="bike158" type="bike_bicycle" depart="318.81" departLane="best" from="-596802428#2" to="369969171#4"/>
    <trip id="bike159" type="bike_bicycle" depart="320.83" departLane="best" from="29313247#1" to="889429782#1"/>
    <trip id="bike160" type="bike_bicycle" depart="322.85" departLane="best" from="704641291#1" to="-946030627#2"/>
    <trip id="bike161" type="bike_bicycle" depart="324.87" departLane="best" from="-599191522#0" to="711379743#0"/>
    <trip id="bike162" type="bike_bicycle" depart="326.89" departLane="best" departSpeed="max" from="-1083919818" to="597619420"/>
    <trip id="bike163" type="bike_bicycle" depart="328.90" departLane="best" departSpeed="max" from="-601455487#5" to="-889429784"/>
    <trip id="bike164" type="bike_bicycle" depart="330.92" departLane="best" from="598767884#4" to="708533143#8"/>
    <trip id="bike165" type="bike_bicycle" depart="332.94" departLane="best" from="599191522#0" to="-598686815#2"/>
    <trip id="bike166" type="bike_bicycle" depart="334.96" departLane="best" from="-598756401#0" to="-220360797#1"/>
    <trip id="bike167" type="bike_bicycle" depart="336.97" departLane="best" from="705794058#1" to="706455003#1"/>
    <trip id="bike168" type="bike_bicycle" depart="338.99" departLane="best" from="-593642479#5" to="675212243#1"/>
    <trip id="bike170" type="bike_bicycle" depart="343.03" departLane="best" from="598767869#2" to="597607799#4"/>
    <trip id="bike171" type="bike_bicycle" depart="345.05" departLane="best" departSpeed="max" from="-1077033611" to="-596802425"/>
    <trip id="bike172" type="bike_bicycle" depart="347.06" departLane="best" from="-601455481#0" to="708533143#9"/>
    <trip id="bike173" type="bike_bicycle" depart="349.08" departLane="best" from="-905363915#2" to="-598756409#0"/>
    <trip id="bike174" type="bike_bicycle" depart="351.10" departLane="best" from="37862194#0" to="-889984973#1"/>
    <trip id="bike175" type="bike_bicycle" depart="353.12" departLane="best" from="946030629#3" to="1217463137#0"/>
    <trip id="bike176" type="bike_bicycle" depart="355.14" departLane="best" from="889984928#0" to="-28924711#1"/>
    <trip id="bike177" type="bike_bicycle" depart="357.15" departLane="best" from="-913797000" to="-50536193#8"/>
    <trip id="bike178" type="bike_bicycle" depart="359.17" departLane="best" from="897398092#1" to="-598686814#0"/>
    <trip id="bike179" type="bike_bicycle" depart="361.19" departLane="best" from="-1262814304#10" to="1001057017"/>
    <trip id="bike180" type="bike_bicycle" depart="363.21" departLane="best" from="597555258#1" to="-617320299#3"/>
    <trip id="bike181" type="bike_bicycle" depart="365.22" departLane="best" from="-220307177#0" to="1192885701"/>
    <trip id="bike182" type="bike_bicycle" depart="367.24" departLane="best" departSpeed="max" from="-709360981#2" to="1267842581"/>
    <trip id="bike183" type="bike_bicycle" depart="369.26" departLane="best" from="-597555267#2" to="-597136848#6"/>
    <trip id="bike184" type="bike_bicycle" depart="371.28" departLane="best" from="-1023619573#1" to="-856290146#2"/>
    <trip id="bike185" type="bike_bicycle" depart="373.30" departLane="best" from="1196399797#1" to="597555255#8"/>
    <trip id="bike187" type="bike_bicycle" depart="377.33" departLane="best" departSpeed="max" from="-705219053" to="1244011988#0"/>
    <trip id="bike188" type="bike_bicycle" depart="379.35" departLane="best" from="459315212#1" to="-684342613"/>
    <trip id="bike189" type="bike_bicycle" depart="381.37" departLane="best" from="-598767882#4" to="704648918#2"/>
    <trip id="bike191" type="bike_bicycle" depart="385.40" departLane="best" departSpeed="max" from="-598767871" to="-890573928"/>
    <trip id="bike192" type="bike_bicycle" depart="387.42" departLane="best" from="-816208527#1" to="598767891#3"/>
    <trip id="bike193" type="bike_bicycle" depart="389.44" departLane="best" from="-1290401834#7" to="-945322259#2"/>
    <trip id="bike194" type="bike_bicycle" depart="391.46" departLane="best" from="-889984929#0" to="-50536193#12"/>
    <trip id="bike196" type="bike_bicycle" depart="395.49" departLane="best" from="598756399#1" to="1237202844"/>
    <trip id="bike197" type="bike_bicycle" depart="397.51" departLane="best" from="-1023619572#0" to="598767878#1"/>
    <trip id="bike198" type="bike_bicycle" depart="399.53" departLane="best" from="-889984963" to="1290401834#3"/>
    <trip id="bike199" type="bike_bicycle" depart="401.55" departLane="best" from="-397993693" to="1096184943"/>
    <trip id="bike200" type="bike_bicycle" depart="403.56" departLane="best" departSpeed="max" from="-889985053" to="-597555254#0"/>
    <trip id="bike201" type="bike_bicycle" depart="405.58" departLane="best" from="-962179362#0" to="816208527#3"/>
    <trip id="bike202" type="bike_bicycle" depart="407.60" departLane="best" departSpeed="max" from="598767872" to="-472838714#1"/>
    <trip id="bike203" type="bike_bicycle" depart="409.62" departLane="best" from="1217463137#4" to="1196399743#0"/>
    <trip id="bike204" type="bike_bicycle" depart="411.63" departLane="best" departSpeed="max" from="374515769#0" to="684728085#0"/>
    <trip id="bike205" type="bike_bicycle" depart="413.65" departLane="best" from="601861003#1" to="598686799#0"/>
    <trip id="bike206" type="bike_bicycle" depart="415.67" departLane="best" from="465069895#8" to="-597607795#2"/>
    <trip id="bike207" type="bike_bicycle" depart="417.69" departLane="best" from="-465069895#1" to="1106598504"/>
    <trip id="bike208" type="bike_bicycle" depart="419.71" departLane="best" from="597136850#7" to="-11007689#5"/>
    <trip id="bike209" type="bike_bicycle" depart="421.72" departLane="best" from="684728085#1" to="-1253898527#0"/>
    <trip id="bike210" type="bike_bicycle" depart="423.74" departLane="best" from="-863044702#0" to="374515770#1"/>
    <trip id="bike211" type="bike_bicycle" depart="425.76" departLane="best" from="-399451682#1" to="826873321#1"/>
    <trip id="bike212" type="bike_bicycle" depart="427.78" departLane="best" from="-1090147369" to="-598675465#2"/>
    <trip id="bike213" type="bike_bicycle" depart="429.79" departLane="best" from="397993967#2" to="-1023619583"/>
    <trip id="bike214" type="bike_bicycle" depart="431.81" departLane="best" from="598675461#1" to="598756394#1"/>
    <trip id="bike215" type="bike_bicycle" depart="433.83" departLane="best" from="1258466604#7" to="-946030639#0"/>
    <trip id="bike217" type="bike_bicycle" depart="437.87" departLane="best" from="1136892216#1" to="-1196399801#2"/>
    <trip id="bike218" type="bike_bicycle" depart="439.88" departLane="best" from="597555255#7" to="705219053"/>
    <trip id="bike219" type="bike_bicycle" depart="441.90" departLane="best" from="905363915#9" to="601455488"/>
    <trip id="bike221" type="bike_bicycle" depart="445.94" departLane="best" from="136556857#2" to="-889984978"/>
    <trip id="bike222" type="bike_bicycle" depart="447.95" departLane="best" from="-708533143#3" to="28924715#1"/>
    <trip id="bike223" type="bike_bicycle" depart="449.97" departLane="best" from="597136850#6" to="1185723931#0"/>
    <trip id="bike224" type="bike_bicycle" depart="451.99" departLane="best" from="-675212141#2" to="1237202844"/>
    <trip id="bike225" type="bike_bicycle" depart="454.01" departLane="best" from="719345489#1" to="-598675465#2"/>
    <trip id="bike226" type="bike_bicycle" depart="456.03" departLane="best" from="1012341096" to="-598686805"/>
    <trip id="bike227" type="bike_bicycle" depart="458.04" departLane="best" from="597555254#1" to="37862194#2"/>
    <trip id="bike228" type="bike_bicycle" depart="460.06" departLane="best" from="598686800#2" to="1196399801#3"/>
    <trip id="bike229" type="bike_bicycle" depart="462.08" departLane="best" from="37370971#0" to="598756394#0"/>
    <trip id="bike230" type="bike_bicycle" depart="464.10" departLane="best" from="-1204908492" to="598767874"/>
    <trip id="bike231" type="bike_bicycle" depart="466.12" departLane="best" from="-598675463#0" to="675260241#3"/>
    <trip id="bike232" type="bike_bicycle" depart="468.13" departLane="best" from="1196399800#0" to="-38107924#1"/>
    <trip id="bike233" type="bike_bicycle" depart="470.15" departLane="best" from="-596802481#0" to="-596788389#1"/>
    <trip id="bike234" type="bike_bicycle" depart="472.17" departLane="best" from="596802486#1" to="1221468193#0"/>
    <trip id="bike235" type="bike_bicycle" depart="474.19" departLane="best" from="-826874589#0" to="1221468194"/>
    <trip id="bike236" type="bike_bicycle" depart="476.20" departLane="best" departSpeed="max" from="-863044707#1" to="-597136848#2"/>
    <trip id="bike237" type="bike_bicycle" depart="478.22" departLane="best" departSpeed="max" from="-889984907" to="826873321#1"/>
    <trip id="bike238" type="bike_bicycle" depart="480.24" departLane="best" from="-1285554658" to="-596802428#1"/>
    <trip id="bike240" type="bike_bicycle" depart="484.28" departLane="best" from="-708920953#0" to="1023619584"/>
    <trip id="bike241" type="bike_bicycle" depart="486.29" departLane="best" from="-684342609#1" to="598686800#4"/>
    <trip id="bike242" type="bike_bicycle" depart="488.31" departLane="best" from="693286036#2" to="889985053"/>
    <trip id="bike243" type="bike_bicycle" depart="490.33" departLane="best" departSpeed="max" from="-889429785" to="598675474"/>
    <trip id="bike244" type="bike_bicycle" depart="492.35" departLane="best" from="1205185818" to="220307179#1"/>
    <trip id="bike245" type="bike_bicycle" depart="494.36" departLane="best" from="-593642478#1" to="-597555261#0"/>
    <trip id="bike246" type="bike_bicycle" depart="496.38" departLane="best" from="-889984973#3" to="1112836173"/>
    <trip id="bike247" type="bike_bicycle" depart="498.40" departLane="best" from="-601867552#1" to="-50536193#3"/>
    <trip id="bike248" type="bike_bicycle" depart="500.42" departLane="best" from="-825404708#1" to="465069895#6"/>
    <trip id="bike249" type="bike_bicycle" depart="502.44" departLane="best" departSpeed="max" from="-953277980" to="-374515768#2"/>
    <trip id="bike250" type="bike_bicycle" depart="504.45" departLane="best" from="-36730546#0" to="-1106760957"/>