<?xml version="1.0" encoding="UTF-8"?>

<!-- generated on 2024-09-06 19:06:25.481299 by osmWebWizard.py v1_20_0+0002-343658e7c64
<configuration>
    <net-file value="C:\Users\legion\2024-09-06-19-06-13\osm.net.xml.gz"/>
    <output-trip-file value="C:\Users\legion\2024-09-06-19-06-13\osm.pedestrian.trips.xml"/>
    <route-file value="C:\Users\legion\2024-09-06-19-06-13\osm.pedestrian.rou.xml"/>
    <pedestrians value="True"/>
    <prefix value="ped"/>
    <vehicle-class value="pedestrian"/>
    <fringe-factor value="2"/>
    <max-distance value="2000.0"/>
    <insertion-density value="70.0"/>
</configuration>
-->

<routes xmlns:xsi="http://www.w3.org/2001/XMLSchema-instance" xsi:noNamespaceSchemaLocation="http://sumo.dlr.de/xsd/routes_file.xsd">
    <vType id="ped_pedestrian" vClass="pedestrian"/>
    <person id="ped0" depart="0.00" type="ped_pedestrian">
        <walk from="1308540804" to="-1057491080"/>
    </person>
    <person id="ped1" depart="4.31" type="ped_pedestrian">
        <walk from="-890573861" to="-890573874#0"/>
    </person>
    <person id="ped2" depart="8.62" type="ped_pedestrian">
        <walk from="709360974" to="683855296#1"/>
    </person>
    <person id="ped3" depart="12.93" type="ped_pedestrian">
        <walk from="890197308#2" to="-1213493514"/>
    </person>
    <person id="ped4" depart="17.24" type="ped_pedestrian">
        <walk from="1107126499#1" to="-1126642084#1"/>
    </person>
    <person id="ped5" depart="21.55" type="ped_pedestrian">
        <walk from="-600582035#1" to="1209074830#5"/>
    </person>
    <person id="ped6" depart="25.86" type="ped_pedestrian">
        <walk from="-1040728812" to="-806263709#2"/>
    </person>
    <person id="ped7" depart="30.17" type="ped_pedestrian">
        <walk from="1308543776" to="1219438151#1"/>
    </person>
    <person id="ped8" depart="34.48" type="ped_pedestrian">
        <walk from="-600582035#2" to="1301667746"/>
    </person>
    <person id="ped9" depart="38.79" type="ped_pedestrian">
        <walk from="873097730#5" to="-1040110218"/>
    </person>
    <person id="ped10" depart="43.10" type="ped_pedestrian">
        <walk from="873097730#4" to="702919619#1"/>
    </person>
    <person id="ped11" depart="47.41" type="ped_pedestrian">
        <walk from="-890573899" to="-600582035#0"/>
    </person>
    <person id="ped12" depart="51.72" type="ped_pedestrian">
        <walk from="890573898#0" to="1106261819#1"/>
    </person>
    <person id="ped13" depart="56.03" type="ped_pedestrian">
        <walk from="-1209044000#0" to="-1219936084#0"/>
    </person>
    <person id="ped14" depart="60.34" type="ped_pedestrian">
        <walk from="873097734#1" to="1308543773"/>
    </person>
    <person id="ped15" depart="64.66" type="ped_pedestrian">
        <walk from="873097730#4" to="711117253#1"/>
    </person>
    <person id="ped16" depart="68.97" type="ped_pedestrian">
        <walk from="1209043998#1" to="890573905"/>
    </person>
    <person id="ped17" depart="73.28" type="ped_pedestrian">
        <walk from="-890573913#0" to="1219936084#1"/>
    </person>
    <person id="ped18" depart="77.59" type="ped_pedestrian">
        <walk from="873097733#1" to="1308543776"/>
    </person>
    <person id="ped19" depart="81.90" type="ped_pedestrian">
        <walk from="873097735#1" to="1243099548"/>
    </person>
    <person id="ped20" depart="86.21" type="ped_pedestrian">
        <walk from="702919617#0" to="-1136870139#0"/>
    </person>
    <person id="ped21" depart="90.52" type="ped_pedestrian">
        <walk from="-601455486" to="-890573912"/>
    </person>
    <person id="ped22" depart="94.83" type="ped_pedestrian">
        <walk from="-1136870142" to="-890573878#0"/>
    </person>
    <person id="ped23" depart="99.14" type="ped_pedestrian">
        <walk from="-1209264456" to="-890573907#0"/>
    </person>
    <person id="ped24" depart="103.45" type="ped_pedestrian">
        <walk from="1308540801" to="1107305084#0"/>
    </person>
    <person id="ped25" depart="107.76" type="ped_pedestrian">
        <walk from="-890573909#0" to="-890573862"/>
    </person>
    <person id="ped26" depart="112.07" type="ped_pedestrian">
        <walk from="-806263709#2" to="890573882"/>
    </person>
    <person id="ped27" depart="116.38" type="ped_pedestrian">
        <walk from="1308543775" to="1308543774"/>
    </person>
    <person id="ped28" depart="120.69" type="ped_pedestrian">
        <walk from="-1308540804" to="711117253#1"/>
    </person>
    <person id="ped29" depart="125.00" type="ped_pedestrian">
        <walk from="-1301667746" to="1107305087#0"/>
    </person>
    <person id="ped30" depart="129.31" type="ped_pedestrian">
        <walk from="890573912" to="600511805"/>
    </person>
    <person id="ped31" depart="133.62" type="ped_pedestrian">
        <walk from="1209074830#3" to="702919617#0"/>
    </person>
    <person id="ped32" depart="137.93" type="ped_pedestrian">
        <walk from="873097733#4" to="873097730#1"/>
    </person>
    <person id="ped33" depart="142.24" type="ped_pedestrian">
        <walk from="-601455486" to="-1126642085"/>
    </person>
    <person id="ped34" depart="146.55" type="ped_pedestrian">
        <walk from="-890573880#0" to="-890573902"/>
    </person>
    <person id="ped35" depart="150.86" type="ped_pedestrian">
        <walk from="-600582033" to="890573894"/>
    </person>
    <person id="ped36" depart="155.17" type="ped_pedestrian">
        <walk from="873097735#4" to="1040728812"/>
    </person>
    <person id="ped37" depart="159.48" type="ped_pedestrian">
        <walk from="1308543778" to="1107305089#1"/>
    </person>
    <person id="ped38" depart="163.79" type="ped_pedestrian">
        <walk from="890573871#0" to="1136870140"/>
    </person>
    <person id="ped39" depart="168.10" type="ped_pedestrian">
        <walk from="-806263709#2" to="-890573882"/>
    </person>
    <person id="ped40" depart="172.41" type="ped_pedestrian">
        <walk from="1209074830#4" to="-890573899"/>
    </person>
    <person id="ped41" depart="176.72" type="ped_pedestrian">
        <walk from="1213493514" to="890573869"/>
    </person>
    <person id="ped42" depart="181.03" type="ped_pedestrian">
        <walk from="1057491080" to="-890573871#0"/>
    </person>
    <person id="ped43" depart="185.34" type="ped_pedestrian">
        <walk from="890573913#1" to="1209074830#5"/>
    </person>
    <person id="ped44" depart="189.66" type="ped_pedestrian">
        <walk from="-1209043998#0" to="-1136870139#1"/>
    </person>
    <person id="ped45" depart="193.97" type="ped_pedestrian">
        <walk from="-1212991374#0" to="1308543778"/>
    </person>
    <person id="ped46" depart="198.28" type="ped_pedestrian">
        <walk from="873097730#1" to="1110686330#0"/>
    </person>
    <person id="ped47" depart="202.59" type="ped_pedestrian">
        <walk from="-1136870139#0" to="1107305087#0"/>
    </person>
    <person id="ped48" depart="206.90" type="ped_pedestrian">
        <walk from="890573913#1" to="1213493514"/>
    </person>
    <person id="ped49" depart="211.21" type="ped_pedestrian">
        <walk from="890573904" to="873097735#5"/>
    </person>
    <person id="ped50" depart="215.52" type="ped_pedestrian">
        <walk from="-1040110218" to="709360974"/>
    </person>
    <person id="ped51" depart="219.83" type="ped_pedestrian">
        <walk from="683638815" to="1217251812#1"/>
    </person>
    <person id="ped52" depart="224.14" type="ped_pedestrian">
        <walk from="-806263709#2" to="600511805"/>
    </person>
    <person id="ped53" depart="228.45" type="ped_pedestrian">
        <walk from="-1212991374#1" to="1126642085"/>
    </person>
    <person id="ped54" depart="232.76" type="ped_pedestrian">
        <walk from="1107305087#0" to="890573899"/>
    </person>
    <person id="ped55" depart="237.07" type="ped_pedestrian">
        <walk from="873097735#4" to="-890573900"/>
    </person>
    <person id="ped56" depart="241.38" type="ped_pedestrian">
        <walk from="1110686330#1" to="-683855298#1"/>
    </person>
    <person id="ped57" depart="245.69" type="ped_pedestrian">
        <walk from="890573869" to="890197308#1"/>
    </person>
    <person id="ped58" depart="250.00" type="ped_pedestrian">
        <walk from="-890573876" to="600511805"/>
    </person>
    <person id="ped59" depart="254.31" type="ped_pedestrian">
        <walk from="1219936084#0" to="-237322567#1"/>
    </person>
    <person id="ped60" depart="258.62" type="ped_pedestrian">
        <walk from="849806807#0" to="1219438151#0"/>
    </person>
    <person id="ped61" depart="262.93" type="ped_pedestrian">
        <walk from="849806808#2" to="1213493514"/>
    </person>
    <person id="ped62" depart="267.24" type="ped_pedestrian">
        <walk from="-1036494421" to="1057491080"/>
    </person>
    <person id="ped63" depart="271.55" type="ped_pedestrian">
        <walk from="-1040728033" to="890573879"/>
    </person>
    <person id="ped64" depart="275.86" type="ped_pedestrian">
        <walk from="873097735#5" to="873097734#1"/>
    </person>
    <person id="ped65" depart="280.17" type="ped_pedestrian">
        <walk from="-890573878#2" to="-1136880669"/>
    </person>
    <person id="ped66" depart="284.48" type="ped_pedestrian">
        <walk from="873097735#5" to="890573898#0"/>
    </person>
    <person id="ped67" depart="288.79" type="ped_pedestrian">
        <walk from="-1171078191" to="1209044001#1"/>
    </person>
    <person id="ped68" depart="293.10" type="ped_pedestrian">
        <walk from="-1136870139#2" to="849806808#2"/>
    </person>
    <person id="ped69" depart="297.41" type="ped_pedestrian">
        <walk from="849806807#0" to="-1308540803#0"/>
    </person>
    <person id="ped70" depart="301.72" type="ped_pedestrian">
        <walk from="1107305103#1" to="1219690215#0"/>
    </person>
    <person id="ped71" depart="306.03" type="ped_pedestrian">
        <walk from="-806263709#2" to="890197308#1"/>
    </person>
    <person id="ped72" depart="310.34" type="ped_pedestrian">
        <walk from="1107126499#1" to="-890573864"/>
    </person>
    <person id="ped73" depart="314.66" type="ped_pedestrian">
        <walk from="1209044001#0" to="711117253#1"/>
    </person>
    <person id="ped74" depart="318.97" type="ped_pedestrian">
        <walk from="-1308543778" to="1040728033"/>
    </person>
    <person id="ped75" depart="323.28" type="ped_pedestrian">
        <walk from="890573913#0" to="600582035#2"/>
    </person>
    <person id="ped76" depart="327.59" type="ped_pedestrian">
        <walk from="1107305084#1" to="1209074831#1"/>
    </person>
    <person id="ped77" depart="331.90" type="ped_pedestrian">
        <walk from="-1219690207#0" to="-890573874#0"/>
    </person>
    <person id="ped78" depart="336.21" type="ped_pedestrian">
        <walk from="-890573899" to="1301667746"/>
    </person>
    <person id="ped79" depart="340.52" type="ped_pedestrian">
        <walk from="-683638815" to="-890573871#0"/>
    </person>
    <person id="ped80" depart="344.83" type="ped_pedestrian">
        <walk from="-1136870140" to="237322567#0"/>
    </person>
    <person id="ped81" depart="349.14" type="ped_pedestrian">
        <walk from="-601455486" to="890573874#1"/>
    </person>
    <person id="ped82" depart="353.45" type="ped_pedestrian">
        <walk from="873097734#3" to="-1209044002"/>
    </person>
    <person id="ped83" depart="357.76" type="ped_pedestrian">
        <walk from="-683638816#3" to="683638816#3"/>
    </person>
    <person id="ped84" depart="362.07" type="ped_pedestrian">
        <walk from="-600582033" to="-1308543772#1"/>
    </person>
    <person id="ped85" depart="366.38" type="ped_pedestrian">
        <walk from="890573878#2" to="1243075886"/>
    </person>
    <person id="ped86" depart="370.69" type="ped_pedestrian">
        <walk from="1107305103#1" to="873097730#3"/>
    </person>
    <person id="ped87" depart="375.00" type="ped_pedestrian">
        <walk from="873097730#4" to="-711117253#1"/>
    </person>
    <person id="ped88" depart="379.31" type="ped_pedestrian">
        <walk from="-1209044001#0" to="1126642084#1"/>
    </person>
    <person id="ped89" depart="383.62" type="ped_pedestrian">
        <walk from="1107126499#1" to="1136870142"/>
    </person>
    <person id="ped90" depart="387.93" type="ped_pedestrian">
        <walk from="702919620#2" to="683855296#1"/>
    </person>
    <person id="ped91" depart="392.24" type="ped_pedestrian">
        <walk from="890573909#0" to="-1219936084#0"/>
    </person>
    <person id="ped92" depart="396.55" type="ped_pedestrian">
        <walk from="1098197559" to="1106261819#1"/>
    </person>
    <person id="ped93" depart="400.86" type="ped_pedestrian">
        <walk from="873097735#1" to="-890573884"/>
    </person>
    <person id="ped94" depart="405.17" type="ped_pedestrian">
        <walk from="-1308543776" to="1136870138"/>
    </person>
    <person id="ped95" depart="409.48" type="ped_pedestrian">
        <walk from="1107126499#1" to="-890573907#1"/>
    </person>
    <person id="ped96" depart="413.79" type="ped_pedestrian">
        <walk from="-683855298#1" to="890573878#3"/>
    </person>
    <person id="ped97" depart="418.10" type="ped_pedestrian">
        <walk from="1107305085#0" to="873097735#5"/>
    </person>
    <person id="ped98" depart="422.41" type="ped_pedestrian">
        <walk from="1209074830#1" to="-1136870139#2"/>
    </person>
    <person id="ped99" depart="426.72" type="ped_pedestrian">
        <walk from="911561446" to="873097734#2"/>
    </person>
    <person id="ped100" depart="431.03" type="ped_pedestrian">
        <walk from="890573903" to="890573879"/>
    </person>
    <person id="ped101" depart="435.34" type="ped_pedestrian">
        <walk from="873097734#1" to="-683638815"/>
    </person>
    <person id="ped102" depart="439.66" type="ped_pedestrian">
        <walk from="1109199320#1" to="-890573864"/>
    </person>
    <person id="ped103" depart="443.97" type="ped_pedestrian">
        <walk from="1057491080" to="-1136880669"/>
    </person>
    <person id="ped104" depart="448.28" type="ped_pedestrian">
        <walk from="-890573913#0" to="890573909#0"/>
    </person>
    <person id="ped105" depart="452.59" type="ped_pedestrian">
        <walk from="-806263709#2" to="873097730#3"/>
    </person>
    <person id="ped106" depart="456.90" type="ped_pedestrian">
        <walk from="1107305087#1" to="1110686330#0"/>
    </person>
    <person id="ped107" depart="461.21" type="ped_pedestrian">
        <walk from="890573898#0" to="890573913#0"/>
    </person>
    <person id="ped108" depart="465.52" type="ped_pedestrian">
        <walk from="1209074830#2" to="709360974"/>
    </person>
    <person id="ped109" depart="469.83" type="ped_pedestrian">
        <walk from="-1286151934" to="1036494421"/>
    </person>
    <person id="ped110" depart="474.14" type="ped_pedestrian">
        <walk from="890573903" to="1243099548"/>
    </person>
    <person id="ped111" depart="478.45" type="ped_pedestrian">
        <walk from="1209044001#1" to="849806807#0"/>
    </person>
    <person id="ped112" depart="482.76" type="ped_pedestrian">
        <walk from="-1136870137#1" to="1286151966"/>
    </person>
    <person id="ped113" depart="487.07" type="ped_pedestrian">
        <walk from="1126642084#0" to="873097735#3"/>
    </person>
    <person id="ped114" depart="491.38" type="ped_pedestrian">
        <walk from="-1286151966" to="890573901"/>
    </person>
    <person id="ped115" depart="495.69" type="ped_pedestrian">
        <walk from="-1136870142" to="-711117253#0"/>
    </person>
    <person id="ped116" depart="500.00" type="ped_pedestrian">
        <walk from="1217251812#1" to="683855296#1"/>
    </person>
    <person id="ped117" depart="504.31" type="ped_pedestrian">
        <walk from="-683638816#2" to="-1286151934"/>
    </person>
    <person id="ped118" depart="508.62" type="ped_pedestrian">
        <walk from="890197308#2" to="-890573880#1"/>
    </person>
    <person id="ped119" depart="512.93" type="ped_pedestrian">
        <walk from="1217251812#1" to="1308543776"/>
    </person>
    <person id="ped120" depart="517.24" type="ped_pedestrian">
        <walk from="1107126499#0" to="1286151966"/>
    </person>
    <person id="ped121" depart="521.55" type="ped_pedestrian">
        <walk from="1136870139#2" to="890573880#1"/>
    </person>
    <person id="ped122" depart="525.86" type="ped_pedestrian">
        <walk from="-237322567#0" to="709360973"/>
    </person>
    <person id="ped123" depart="530.17" type="ped_pedestrian">
        <walk from="-683638816#3" to="1107305089#1"/>
    </person>
    <person id="ped124" depart="534.48" type="ped_pedestrian">
        <walk from="600582035#0" to="1040110218"/>
    </person>
    <person id="ped125" depart="538.79" type="ped_pedestrian">
        <walk from="-890573880#0" to="849806807#2"/>
    </person>
    <person id="ped126" depart="543.10" type="ped_pedestrian">
        <walk from="-1136870140" to="1136870139#2"/>
    </person>
    <person id="ped127" depart="547.41" type="ped_pedestrian">
        <walk from="911561446" to="890573913#1"/>
    </person>
    <person id="ped128" depart="551.72" type="ped_pedestrian">
        <walk from="-1136870140" to="-890573864"/>
    </person>
    <person id="ped129" depart="556.03" type="ped_pedestrian">
        <walk from="-806263709#2" to="890573880#1"/>
    </person>
    <person id="ped130" depart="560.34" type="ped_pedestrian">
        <walk from="873097735#5" to="890573859"/>
    </person>
    <person id="ped131" depart="564.66" type="ped_pedestrian">
        <walk from="-890573909#0" to="-600582035#1"/>
    </person>
    <person id="ped132" depart="568.97" type="ped_pedestrian">
        <walk from="873097733#2" to="702919620#0"/>
    </person>
    <person id="ped133" depart="573.28" type="ped_pedestrian">
        <walk from="1219936085#0" to="890573909#0"/>
    </person>
    <person id="ped134" depart="577.59" type="ped_pedestrian">
        <walk from="1308543778" to="-1040110218"/>
    </person>
    <person id="ped135" depart="581.90" type="ped_pedestrian">
        <walk from="873097731#0" to="1040110218"/>
    </person>
    <person id="ped136" depart="586.21" type="ped_pedestrian">
        <walk from="237322567#1" to="890573884"/>
    </person>
    <person id="ped137" depart="590.52" type="ped_pedestrian">
        <walk from="-1243075885#1" to="-1243099548"/>
    </person>
    <person id="ped138" depart="594.83" type="ped_pedestrian">
        <walk from="-1209264457" to="1219936084#1"/>
    </person>
    <person id="ped139" depart="599.14" type="ped_pedestrian">
        <walk from="-890573859" to="1308543773"/>
    </person>
    <person id="ped140" depart="603.45" type="ped_pedestrian">
        <walk from="702919619#1" to="-890573859"/>
    </person>
    <person id="ped141" depart="607.76" type="ped_pedestrian">
        <walk from="1301667746" to="-890573900"/>
    </person>
    <person id="ped142" depart="612.07" type="ped_pedestrian">
        <walk from="1109199321" to="890573874#1"/>
    </person>
    <person id="ped143" depart="616.38" type="ped_pedestrian">
        <walk from="873097734#0" to="-1219690207#0"/>
    </person>
    <person id="ped144" depart="620.69" type="ped_pedestrian">
        <walk from="1107126499#1" to="-890573907#0"/>
    </person>
    <person id="ped145" depart="625.00" type="ped_pedestrian">
        <walk from="-1036494421" to="873097730#0"/>
    </person>
    <person id="ped146" depart="629.31" type="ped_pedestrian">
        <walk from="1308540803#0" to="-890573899"/>
    </person>
    <person id="ped147" depart="633.62" type="ped_pedestrian">
        <walk from="709360975" to="1219936084#0"/>
    </person>
    <person id="ped148" depart="637.93" type="ped_pedestrian">
        <walk from="1107126501#0" to="-1040110219"/>
    </person>
    <person id="ped149" depart="642.24" type="ped_pedestrian">
        <walk from="-1136870141" to="890573859"/>
    </person>
    <person id="ped150" depart="646.55" type="ped_pedestrian">
        <walk from="890573862" to="1219438151#1"/>
    </person>
    <person id="ped151" depart="650.86" type="ped_pedestrian">
        <walk from="873097733#3" to="1286151966"/>
    </person>
    <person id="ped152" depart="655.17" type="ped_pedestrian">
        <walk from="-1243075887" to="-1308540803#0"/>
    </person>
    <person id="ped153" depart="659.48" type="ped_pedestrian">
        <walk from="-890573878#3" to="890573871#0"/>
    </person>
    <person id="ped154" depart="663.79" type="ped_pedestrian">
        <walk from="873097730#1" to="873097735#5"/>
    </person>
    <person id="ped155" depart="668.10" type="ped_pedestrian">
        <walk from="890573861" to="-890573862"/>
    </person>
    <person id="ped156" depart="672.41" type="ped_pedestrian">
        <walk from="-683855298#1" to="-1219936085#0"/>
    </person>
    <person id="ped157" depart="676.72" type="ped_pedestrian">
        <walk from="858830428" to="890573861"/>
    </person>
    <person id="ped158" depart="681.03" type="ped_pedestrian">
        <walk from="1106261819#0" to="1308543777"/>
    </person>
    <person id="ped159" depart="685.34" type="ped_pedestrian">
        <walk from="-1286151934" to="890573879"/>
    </person>
    <person id="ped160" depart="689.66" type="ped_pedestrian">
        <walk from="873097735#2" to="890573906#0"/>
    </person>
    <person id="ped161" depart="693.97" type="ped_pedestrian">
        <walk from="873097730#5" to="890573859"/>
    </person>
    <person id="ped162" depart="698.28" type="ped_pedestrian">
        <walk from="-1040728812" to="806263709#1"/>
    </person>
    <person id="ped163" depart="702.59" type="ped_pedestrian">
        <walk from="-890573896" to="890573880#0"/>
    </person>
    <person id="ped164" depart="706.90" type="ped_pedestrian">
        <walk from="873097730#3" to="873097735#5"/>
    </person>
    <person id="ped165" depart="711.21" type="ped_pedestrian">
        <walk from="873097730#5" to="-890573901"/>
    </person>
    <person id="ped166" depart="715.52" type="ped_pedestrian">
        <walk from="858830430" to="-1243075885#1"/>
    </person>
    <person id="ped167" depart="719.83" type="ped_pedestrian">
        <walk from="873097735#3" to="873097735#4"/>
    </person>
    <person id="ped168" depart="724.14" type="ped_pedestrian">
        <walk from="-601455485" to="873097733#2"/>
    </person>
    <person id="ped169" depart="728.45" type="ped_pedestrian">
        <walk from="1107305087#2" to="1040110219"/>
    </person>
    <person id="ped170" depart="732.76" type="ped_pedestrian">
        <walk from="873097730#1" to="-890573876"/>
    </person>
    <person id="ped171" depart="737.07" type="ped_pedestrian">
        <walk from="-1040728812" to="-806263709#0"/>
    </person>
    <person id="ped172" depart="741.38" type="ped_pedestrian">
        <walk from="-890573894" to="890197308#0"/>
    </person>
    <person id="ped173" depart="745.69" type="ped_pedestrian">
        <walk from="890573902" to="-890573907#1"/>
    </person>
    <person id="ped174" depart="750.00" type="ped_pedestrian">
        <walk from="1308543772#1" to="1107305103#1"/>
    </person>
    <person id="ped175" depart="754.31" type="ped_pedestrian">
        <walk from="890573908" to="1217251812#1"/>
    </person>
    <person id="ped176" depart="758.62" type="ped_pedestrian">
        <walk from="890573878#4" to="-1243099548"/>
    </person>
    <person id="ped177" depart="762.93" type="ped_pedestrian">
        <walk from="890573904" to="-683855298#1"/>
    </person>
    <person id="ped178" depart="767.24" type="ped_pedestrian">
        <walk from="890573900" to="-890573901"/>
    </person>
    <person id="ped179" depart="771.55" type="ped_pedestrian">
        <walk from="-1212991374#0" to="1126642085"/>
    </person>
    <person id="ped180" depart="775.86" type="ped_pedestrian">
        <walk from="702919620#2" to="1040728033"/>
    </person>
    <person id="ped181" depart="780.17" type="ped_pedestrian">
        <walk from="1219936084#0" to="1209074831#0"/>
    </person>
    <person id="ped182" depart="784.48" type="ped_pedestrian">
        <walk from="1040110219" to="1243099548"/>
    </person>
    <person id="ped183" depart="788.79" type="ped_pedestrian">
        <walk from="-711117253#0" to="702919620#1"/>
    </person>
    <person id="ped184" depart="793.10" type="ped_pedestrian">
        <walk from="-1036494421" to="890573878#4"/>
    </person>
    <person id="ped185" depart="797.41" type="ped_pedestrian">
        <walk from="1209044000#1" to="709360974"/>
    </person>
    <person id="ped186" depart="801.72" type="ped_pedestrian">
        <walk from="709360975" to="683638816#3"/>
    </person>
    <person id="ped187" depart="806.03" type="ped_pedestrian">
        <walk from="-890573907#0" to="-1209044001#0"/>
    </person>
    <person id="ped188" depart="810.34" type="ped_pedestrian">
        <walk from="237322567#1" to="1098197559"/>
    </person>
    <person id="ped189" depart="814.66" type="ped_pedestrian">
        <walk from="-890573879" to="873097735#2"/>
    </person>
    <person id="ped190" depart="818.97" type="ped_pedestrian">
        <walk from="702919620#0" to="1040110218"/>
    </person>
    <person id="ped191" depart="823.28" type="ped_pedestrian">
        <walk from="-890573878#3" to="1107305103#3"/>
    </person>
    <person id="ped192" depart="827.59" type="ped_pedestrian">
        <walk from="1098197559" to="1036494421"/>
    </person>
    <person id="ped193" depart="831.90" type="ped_pedestrian">
        <walk from="-1219936084#1" to="1110686330#0"/>
    </person>
    <person id="ped194" depart="836.21" type="ped_pedestrian">
        <walk from="890573878#4" to="683855298#1"/>
    </person>
    <person id="ped195" depart="840.52" type="ped_pedestrian">
        <walk from="890573862" to="1308543775"/>
    </person>
    <person id="ped196" depart="844.83" type="ped_pedestrian">
        <walk from="-890573877" to="1219690215#0"/>
    </person>
    <person id="ped197" depart="849.14" type="ped_pedestrian">
        <walk from="-1036494421" to="-890573910"/>
    </person>
    <person id="ped198" depart="853.45" type="ped_pedestrian">
        <walk from="1107126501#1" to="1286151934"/>
    </person>
    <person id="ped199" depart="857.76" type="ped_pedestrian">
        <walk from="1308543778" to="1136870142"/>
    </person>
    <person id="ped200" depart="862.07" type="ped_pedestrian">
        <walk from="1107305085#0" to="-890573864"/>
    </person>
    <person id="ped201" depart="866.38" type="ped_pedestrian">
        <walk from="1107305103#1" to="890573871#1"/>
    </person>
    <person id="ped202" depart="870.69" type="ped_pedestrian">
        <walk from="873097730#1" to="-683638816#0"/>
    </person>
    <person id="ped203" depart="875.00" type="ped_pedestrian">
        <walk from="-1136880669" to="1209074831#1"/>
    </person>
    <person id="ped204" depart="879.31" type="ped_pedestrian">
        <walk from="1301667746" to="1106261819#0"/>
    </person>
    <person id="ped205" depart="883.62" type="ped_pedestrian">
        <walk from="873097731#1" to="849806807#2"/>
    </person>
    <person id="ped206" depart="887.93" type="ped_pedestrian">
        <walk from="600582035#0" to="-890573874#0"/>
    </person>
    <person id="ped207" depart="892.24" type="ped_pedestrian">
        <walk from="-1308543778" to="-1057491080"/>
    </person>
    <person id="ped208" depart="896.55" type="ped_pedestrian">
        <walk from="-683855296#1" to="1171078191"/>
    </person>
    <person id="ped209" depart="900.86" type="ped_pedestrian">
        <walk from="873097734#1" to="-1209044002"/>
    </person>
    <person id="ped210" depart="905.17" type="ped_pedestrian">
        <walk from="1106261819#2" to="179996740"/>
    </person>
    <person id="ped211" depart="909.48" type="ped_pedestrian">
        <walk from="-1308543777" to="702919619#0"/>
    </person>
    <person id="ped212" depart="913.79" type="ped_pedestrian">
        <walk from="1110686330#0" to="-890573880#0"/>
    </person>
    <person id="ped213" depart="918.10" type="ped_pedestrian">
        <walk from="179996740" to="-1040105401"/>
    </person>
    <person id="ped214" depart="922.41" type="ped_pedestrian">
        <walk from="806263709#0" to="858830430"/>
    </person>
    <person id="ped215" depart="926.72" type="ped_pedestrian">
        <walk from="-1209264457" to="1110686330#1"/>
    </person>
    <person id="ped216" depart="931.03" type="ped_pedestrian">
        <walk from="-1308543772#1" to="890573900"/>
    </person>
    <person id="ped217" depart="935.34" type="ped_pedestrian">
        <walk from="1136870138" to="-1136870139#2"/>
    </person>
    <person id="ped218" depart="939.66" type="ped_pedestrian">
        <walk from="-683855298#1" to="873097735#2"/>
    </person>
    <person id="ped219" depart="943.97" type="ped_pedestrian">
        <walk from="1107305087#1" to="873097731#1"/>
    </person>
    <person id="ped220" depart="948.28" type="ped_pedestrian">
        <walk from="600511805" to="890573909#1"/>
    </person>
    <person id="ped221" depart="952.59" type="ped_pedestrian">
        <walk from="1217251812#1" to="890573898#1"/>
    </person>
    <person id="ped222" depart="956.90" type="ped_pedestrian">
        <walk from="890197308#2" to="1308543775"/>
    </person>
    <person id="ped223" depart="961.21" type="ped_pedestrian">
        <walk from="702919620#0" to="1209074830#4"/>
    </person>
    <person id="ped224" depart="965.52" type="ped_pedestrian">
        <walk from="873097733#2" to="1219690215#0"/>
    </person>
    <person id="ped225" depart="969.83" type="ped_pedestrian">
        <walk from="890573859" to="838059688"/>
    </person>
    <person id="ped226" depart="974.14" type="ped_pedestrian">
        <walk from="1107305103#1" to="-890573898#1"/>
    </person>