<?xml version="1.0" encoding="UTF-8"?>

<!-- generated on 2024-09-10 18:57:56 by Eclipse SUMO netedit Version 1.20.0
<configuration xmlns:xsi="http://www.w3.org/2001/XMLSchema-instance" xsi:noNamespaceSchemaLocation="http://sumo.dlr.de/xsd/neteditConfiguration.xsd">

    <input>
        <sumocfg-file value="C:\Users\legion\code_nga_4\sumo_config_file_nga_4.sumocfg"/>
        <additional-files value=""/>
        <route-files value="C:\Users\legion\code_nga_4\route_file_nga_4.rou.xml"/>
        <sumo-net-file value="C:\Users\legion\ngã 4 new\network file.net.xml"/>
    </input>

    <processing>
        <geometry.min-radius.fix.railways value="false"/>
        <geometry.max-grade.fix value="false"/>
        <offset.disable-normalization value="true"/>
        <lefthand value="0"/>
    </processing>

    <junctions>
        <no-turnarounds value="true"/>
        <junctions.corner-detail value="5"/>
        <junctions.limit-turn-speed value="5.50"/>
        <rectangular-lane-cut value="0"/>
    </junctions>

    <pedestrian>
        <walkingareas value="0"/>
    </pedestrian>

    <netedit>
        <ignore.routeelements value="false"/>
    </netedit>

</configuration>
-->

<tlLogics version="1.20" xmlns:xsi="http://www.w3.org/2001/XMLSchema-instance" xsi:noNamespaceSchemaLocation="http://sumo.dlr.de/xsd/tllogic_file.xsd">
    <tlLogic id="J1" type="static" programID="0" offset="0">
        <phase duration="42" state="GGGgrrrrGGGgrrrr"/>
        <phase duration="3"  state="yyyyrrrryyyyrrrr"/>
        <phase duration="42" state="rrrrGGGgrrrrGGGg"/>
        <phase duration="3"  state="rrrryyyyrrrryyyy"/>
    </tlLogic>
    <tlLogic id="J11" type="static" programID="0" offset="0">
        <phase duration="42" state="GGGgrrrrGGGgrrrr"/>
        <phase duration="3"  state="yyyyrrrryyyyrrrr"/>
        <phase duration="42" state="rrrrGGGgrrrrGGGg"/>
        <phase duration="3"  state="rrrryyyyrrrryyyy"/>
    </tlLogic>

    <connection from="-E1" to="-E9" fromLane="0" toLane="0" tl="J1" linkIndex="12"/>
    <connection from="-E1" to="-E17" fromLane="0" toLane="0" tl="J1" linkIndex="13"/>
    <connection from="-E1" to="-E17" fromLane="1" toLane="1" tl="J1" linkIndex="14"/>
    <connection from="-E1" to="-E8" fromLane="1" toLane="1" tl="J1" linkIndex="15"/>
    <connection from="-E12" to="-E15" fromLane="0" toLane="0" tl="J11" linkIndex="4"/>
    <connection from="-E12" to="-E11" fromLane="0" toLane="0" tl="J11" linkIndex="5"/>
    <connection from="-E12" to="-E11" fromLane="1" toLane="1" tl="J11" linkIndex="6"/>
    <connection from="-E12" to="E16" fromLane="1" toLane="1" tl="J11" linkIndex="7"/>
    <connection from="-E16" to="E12" fromLane="0" toLane="0" tl="J11" linkIndex="8"/>
    <connection from="-E16" to="-E15" fromLane="0" toLane="0" tl="J11" linkIndex="9"/>
    <connection from="-E16" to="-E15" fromLane="1" toLane="1" tl="J11" linkIndex="10"/>
    <connection from="-E16" to="-E11" fromLane="1" toLane="1" tl="J11" linkIndex="11"/>
    <connection from="E11" to="E16" fromLane="0" toLane="0" tl="J11" linkIndex="12"/>
    <connection from="E11" to="E12" fromLane="0" toLane="0" tl="J11" linkIndex="13"/>
    <connection from="E11" to="E12" fromLane="1" toLane="1" tl="J11" linkIndex="14"/>
    <connection from="E11" to="-E15" fromLane="1" toLane="1" tl="J11" linkIndex="15"/>
    <connection from="E15" to="-E11" fromLane="0" toLane="0" tl="J11" linkIndex="0"/>
    <connection from="E15" to="E16" fromLane="0" toLane="0" tl="J11" linkIndex="1"/>
    <connection from="E15" to="E16" fromLane="1" toLane="1" tl="J11" linkIndex="2"/>
    <connection from="E15" to="E12" fromLane="1" toLane="1" tl="J11" linkIndex="3"/>
    <connection from="E17" to="-E8" fromLane="0" toLane="0" tl="J1" linkIndex="4"/>
    <connection from="E17" to="E1" fromLane="0" toLane="0" tl="J1" linkIndex="5"/>
    <connection from="E17" to="E1" fromLane="1" toLane="1" tl="J1" linkIndex="6"/>
    <connection from="E17" to="-E9" fromLane="1" toLane="1" tl="J1" linkIndex="7"/>
    <connection from="E8" to="E1" fromLane="0" toLane="0" tl="J1" linkIndex="0"/>
    <connection from="E8" to="-E9" fromLane="0" toLane="0" tl="J1" linkIndex="1"/>
    <connection from="E8" to="-E9" fromLane="1" toLane="1" tl="J1" linkIndex="2"/>
    <connection from="E8" to="-E17" fromLane="1" toLane="1" tl="J1" linkIndex="3"/>
    <connection from="E9" to="-E17" fromLane="0" toLane="0" tl="J1" linkIndex="8"/>
    <connection from="E9" to="-E8" fromLane="0" toLane="0" tl="J1" linkIndex="9"/>
    <connection from="E9" to="-E8" fromLane="1" toLane="1" tl="J1" linkIndex="10"/>
    <connection from="E9" to="E1" fromLane="1" toLane="1" tl="J1" linkIndex="11"/>
</tlLogics>
