<?xml version="1.0" encoding="UTF-8"?>

<!-- generated on 2024-09-10 18:57:56 by Eclipse SUMO netedit Version 1.20.0
<configuration xmlns:xsi="http://www.w3.org/2001/XMLSchema-instance" xsi:noNamespaceSchemaLocation="http://sumo.dlr.de/xsd/neteditConfiguration.xsd">

    <input>
        <sumocfg-file value="C:\Users\legion\code_nga_4\sumo_config_file_nga_4.sumocfg"/>
        <additional-files value=""/>
        <route-files value="C:\Users\legion\code_nga_4\route_file_nga_4.rou.xml"/>
        <sumo-net-file value="C:\Users\legion\ngã 4 new\network file.net.xml"/>
    </input>

    <processing>
        <geometry.min-radius.fix.railways value="false"/>
        <geometry.max-grade.fix value="false"/>
        <offset.disable-normalization value="true"/>
        <lefthand value="0"/>
    </processing>

    <junctions>
        <no-turnarounds value="true"/>
        <junctions.corner-detail value="5"/>
        <junctions.limit-turn-speed value="5.50"/>
        <rectangular-lane-cut value="0"/>
    </junctions>

    <pedestrian>
        <walkingareas value="0"/>
    </pedestrian>

    <netedit>
        <ignore.routeelements value="false"/>
    </netedit>

</configuration>
-->

<nodes version="1.20" xmlns:xsi="http://www.w3.org/2001/XMLSchema-instance" xsi:noNamespaceSchemaLocation="http://sumo.dlr.de/xsd/nodes_file.xsd">
    <location netOffset="0.00,0.00" convBoundary="-100.00,-100.00,700.00,300.00" origBoundary="-10000000000.00,-10000000000.00,10000000000.00,10000000000.00" projParameter="!"/>

    <node id="J0" x="-100.00" y="100.00" type="dead_end"/>
    <node id="J1" x="500.00" y="100.00" type="traffic_light" tl="J1"/>
    <node id="J10" x="0.00" y="100.00" type="priority"/>
    <node id="J11" x="100.00" y="100.00" type="traffic_light" tl="J11"/>
    <node id="J12" x="200.00" y="100.00" type="priority"/>
    <node id="J13" x="300.00" y="100.00" type="priority"/>
    <node id="J14" x="400.00" y="100.00" type="priority"/>
    <node id="J15" x="100.00" y="200.00" type="priority"/>
    <node id="J16" x="100.00" y="0.00" type="priority"/>
    <node id="J17" x="500.00" y="-100.00" type="dead_end"/>
    <node id="J18" x="600.00" y="100.00" type="priority"/>
    <node id="J19" x="700.00" y="100.00" type="dead_end"/>
    <node id="J3" x="100.00" y="300.00" type="dead_end"/>
    <node id="J4" x="100.00" y="-100.00" type="dead_end"/>
    <node id="J7" x="500.00" y="300.00" type="dead_end"/>
    <node id="J8" x="500.00" y="200.00" type="priority"/>
    <node id="J9" x="500.00" y="0.00" type="priority"/>
</nodes>
