<?xml version="1.0" encoding="UTF-8"?>

<!-- generated on 2024-09-10 18:59:54 by Eclipse SUMO sumo Version 1.20.0
-->

<configuration xmlns:xsi="http://www.w3.org/2001/XMLSchema-instance" xsi:noNamespaceSchemaLocation="http://sumo.dlr.de/xsd/sumoConfiguration.xsd">

    <input>
        <net-file value="network%20file.net.xml"/>
        <route-files value="../code_nga_4/route_file_nga_4.rou.xml"/>
    </input>

</configuration>
